<?xml version="1.0" encoding="UTF-8"?>

<!-- generated on 11/03/21 18:54:25 by Eclipse SUMO netconvert Version 1.8.0
<configuration xmlns:xsi="http://www.w3.org/2001/XMLSchema-instance" xsi:noNamespaceSchemaLocation="http://sumo.dlr.de/xsd/netconvertConfiguration.xsd">

    <input>
        <vissim-file value="guangshen_002.inpx"/>
    </input>

    <output>
        <output-file value="guangshen_002.net.xml"/>
    </output>

    <report>
        <aggregate-warnings value="5"/>
    </report>

</configuration>
-->

<net version="1.6" junctionCornerDetail="5" limitTurnSpeed="5.50" xmlns:xsi="http://www.w3.org/2001/XMLSchema-instance" xsi:noNamespaceSchemaLocation="http://sumo.dlr.de/xsd/net_file.xsd">

    <location netOffset="-492416.29,-2526717.87" convBoundary="0.00,0.00,1361.72,2686.56" origBoundary="492416.29,2526717.87,493778.01,2529404.43" projParameter="!"/>

    <edge id=":0_0" function="internal">
        <lane id=":0_0_0" index="0" speed="13.89" length="105.33" width="3.50" shape="521.94,1081.57 540.30,1075.77 571.98,1065.18 603.59,1054.39 621.76,1047.99"/>
    </edge>
    <edge id=":0_1" function="internal">
        <lane id=":0_1_0" index="0" speed="13.89" length="138.89" width="3.50" shape="521.94,1081.57 545.78,1075.87 589.55,1065.66 633.35,1055.68 657.33,1050.64"/>
    </edge>
    <edge id=":0_2" function="internal">
        <lane id=":0_2_0" index="0" speed="13.89" length="105.33" width="3.50" shape="522.82,1084.96 541.19,1079.16 572.86,1068.58 604.47,1057.80 622.65,1051.40"/>
    </edge>
    <edge id=":0_3" function="internal">
        <lane id=":0_3_0" index="0" speed="13.89" length="138.46" width="3.50" shape="522.82,1084.96 546.60,1079.27 590.22,1069.09 633.88,1059.14 657.79,1054.11"/>
    </edge>
    <edge id=":1_0" function="internal">
        <lane id=":1_0_0" index="0" speed="13.89" length="21.59" width="3.50" shape="829.76,840.97 829.41,862.76"/>
        <lane id=":1_0_1" index="1" speed="13.89" length="21.59" width="3.50" shape="832.65,842.94 832.54,864.33"/>
    </edge>
    <edge id=":1_2" function="internal">
        <lane id=":1_2_0" index="0" speed="13.89" length="1.50" width="3.50" shape="828.74,864.10 829.41,862.76"/>
        <lane id=":1_2_1" index="1" speed="13.89" length="1.50" width="3.50" shape="831.87,865.67 832.54,864.33"/>
    </edge>
    <edge id=":10_0" function="internal">
        <lane id=":10_0_0" index="0" speed="13.89" length="37.04" width="3.50" shape="864.59,1042.98 864.39,1051.41 866.10,1061.14 868.53,1070.89 870.50,1079.35"/>
    </edge>
    <edge id=":10_1" function="internal">
        <lane id=":10_1_0" index="0" speed="13.89" length="23.88" width="3.50" shape="864.59,1042.98 860.69,1066.54"/>
    </edge>
    <edge id=":10_2" function="internal">
        <lane id=":10_2_0" index="0" speed="13.89" length="10.29" width="3.50" shape="861.17,1042.26 860.96,1050.89 861.23,1052.52"/>
    </edge>
    <edge id=":10_3" function="internal">
        <lane id=":10_3_0" index="0" speed="13.89" length="23.88" width="3.50" shape="861.17,1042.26 857.26,1065.81"/>
    </edge>
    <edge id=":10_4" function="internal">
        <lane id=":10_4_0" index="0" speed="13.89" length="28.07" width="3.50" shape="861.23,1052.52 862.67,1061.10 865.09,1071.31 867.06,1079.97"/>
    </edge>
    <edge id=":11_0" function="internal">
        <lane id=":11_0_0" index="0" speed="13.89" length="3.00" width="3.50" shape="479.05,1571.60 480.26,1568.85"/>
    </edge>
    <edge id=":11_1" function="internal">
        <lane id=":11_1_0" index="0" speed="13.89" length="5.74" width="3.50" shape="479.05,1571.60 484.74,1570.81"/>
    </edge>
    <edge id=":11_2" function="internal">
        <lane id=":11_2_0" index="0" speed="13.89" length="3.00" width="3.50" shape="482.26,1573.00 483.47,1570.26"/>
    </edge>
    <edge id=":11_3" function="internal">
        <lane id=":11_3_0" index="0" speed="13.89" length="5.74" width="3.50" shape="482.26,1573.00 487.94,1572.22"/>
    </edge>
    <edge id=":2_0" function="internal">
        <lane id=":2_0_0" index="0" speed="13.89" length="16.54" width="3.50" shape="395.64,1768.82 396.71,1764.25 395.95,1760.77 395.17,1757.27 396.19,1752.68"/>
    </edge>
    <edge id=":2_1" function="internal">
        <lane id=":2_1_0" index="0" speed="13.89" length="145.78" width="3.75" shape="399.03,1770.42 423.18,1808.39 424.49,1836.26 402.99,1854.03 358.66,1861.72"/>
    </edge>
    <edge id=":2_2" function="internal">
        <lane id=":2_2_0" index="0" speed="13.89" length="16.71" width="3.50" shape="399.03,1770.42 400.08,1765.81 399.23,1762.29 398.38,1758.77 399.37,1754.14"/>
    </edge>
    <edge id=":2_3" function="internal">
        <lane id=":2_3_0" index="0" speed="13.89" length="145.72" width="3.75" shape="402.43,1772.02 426.56,1809.98 427.88,1837.85 406.38,1855.62 362.06,1863.30"/>
        <lane id=":2_3_1" index="1" speed="13.89" length="145.72" width="3.75" shape="405.82,1773.62 429.95,1811.57 431.27,1839.43 409.77,1857.21 365.46,1864.89"/>
        <lane id=":2_3_2" index="2" speed="13.89" length="145.72" width="3.75" shape="409.21,1775.22 433.34,1813.17 434.66,1841.02 413.17,1858.79 368.86,1866.47"/>
        <lane id=":2_3_3" index="3" speed="13.89" length="145.72" width="3.75" shape="412.62,1776.83 436.74,1814.78 438.06,1842.63 416.56,1860.39 372.26,1868.06"/>
    </edge>
    <edge id=":3_0" function="internal">
        <lane id=":3_0_0" index="0" speed="13.89" length="492.17" width="3.75" shape="865.75,798.75 1125.25,338.69"/>
        <lane id=":3_0_1" index="1" speed="13.89" length="492.17" width="3.75" shape="904.89,738.04 1128.54,340.49"/>
    </edge>
    <edge id=":3_2" function="internal">
        <lane id=":3_2_0" index="0" speed="13.89" length="195.06" width="3.75" shape="1007.61,578.72 1128.54,340.49"/>
        <lane id=":3_2_1" index="1" speed="13.89" length="195.06" width="3.75" shape="1027.11,548.47 1131.83,342.30"/>
        <lane id=":3_2_2" index="2" speed="13.89" length="195.06" width="3.75" shape="1046.62,518.21 1135.12,344.10"/>
        <lane id=":3_2_3" index="3" speed="13.89" length="195.06" width="3.75" shape="1066.24,487.78 1138.40,345.90"/>
        <lane id=":3_2_4" index="4" speed="13.89" length="195.06" width="3.50" shape="1086.20,456.82 1141.58,347.65"/>
    </edge>
    <edge id=":4_0" function="internal">
        <lane id=":4_0_0" index="0" speed="13.89" length="8.47" width="3.75" shape="1158.21,369.19 1157.54,371.63 1157.88,373.53 1158.23,375.44 1157.56,377.88"/>
        <lane id=":4_0_1" index="1" speed="13.89" length="8.47" width="3.75" shape="1158.21,369.19 1154.24,376.13"/>
        <lane id=":4_0_2" index="2" speed="13.89" length="8.47" width="3.75" shape="1154.90,367.44 1154.22,369.88 1154.57,371.78 1154.91,373.69 1154.24,376.13"/>
        <lane id=":4_0_3" index="3" speed="13.89" length="8.47" width="3.75" shape="1154.90,367.44 1150.92,374.38"/>
        <lane id=":4_0_4" index="4" speed="13.89" length="8.47" width="3.75" shape="1151.58,365.68 1150.91,368.13 1151.25,370.03 1151.60,371.94 1150.92,374.38"/>
        <lane id=":4_0_5" index="5" speed="13.89" length="8.47" width="3.75" shape="1151.58,365.68 1147.61,372.63"/>
        <lane id=":4_0_6" index="6" speed="13.89" length="8.47" width="3.75" shape="1148.27,363.93 1147.59,366.38 1147.94,368.28 1148.28,370.19 1147.61,372.63"/>
        <lane id=":4_0_7" index="7" speed="13.89" length="8.47" width="3.75" shape="1148.27,363.93 1144.29,370.88"/>
        <lane id=":4_0_8" index="8" speed="13.89" length="8.47" width="3.75" shape="1144.95,362.18 1144.27,364.63 1144.62,366.53 1144.96,368.44 1144.29,370.88"/>
        <lane id=":4_0_9" index="9" speed="13.89" length="8.47" width="3.75" shape="1144.95,362.18 1140.97,369.13"/>
    </edge>
    <edge id=":5_0" function="internal">
        <lane id=":5_0_0" index="0" speed="13.89" length="116.00" width="3.50" shape="973.07,744.17 928.49,851.20"/>
        <lane id=":5_0_1" index="1" speed="13.89" length="116.00" width="3.50" shape="969.70,742.53 925.30,849.76"/>
    </edge>
    <edge id=":5_2" function="internal">
        <lane id=":5_2_0" index="0" speed="13.89" length="116.33" width="3.75" shape="969.70,742.53 916.74,845.87"/>
        <lane id=":5_2_1" index="1" speed="13.89" length="116.33" width="3.75" shape="966.33,740.89 913.32,844.32"/>
        <lane id=":5_2_2" index="2" speed="13.89" length="116.33" width="3.75" shape="962.96,739.24 909.90,842.77"/>
        <lane id=":5_2_3" index="3" speed="13.89" length="116.33" width="3.75" shape="959.59,737.60 906.48,841.22"/>
        <lane id=":5_2_4" index="4" speed="13.89" length="116.33" width="3.75" shape="956.21,735.96 903.06,839.67"/>
    </edge>
    <edge id=":6_0" function="internal">
        <lane id=":6_0_0" index="0" speed="13.89" length="317.90" width="3.75" shape="540.47,1622.32 366.80,1945.68"/>
        <lane id=":6_0_1" index="1" speed="13.89" length="317.90" width="3.75" shape="488.51,1706.11 363.46,1943.98"/>
    </edge>
    <edge id=":6_2" function="internal">
        <lane id=":6_2_0" index="0" speed="13.89" length="111.80" width="3.75" shape="451.12,1766.41 363.46,1943.98"/>
        <lane id=":6_2_1" index="1" speed="13.89" length="111.80" width="3.75" shape="428.32,1803.19 360.12,1942.28"/>
        <lane id=":6_2_2" index="2" speed="13.89" length="111.80" width="3.75" shape="405.51,1839.97 356.78,1940.58"/>
        <lane id=":6_2_3" index="3" speed="13.89" length="111.80" width="3.75" shape="382.71,1876.74 353.44,1938.88"/>
        <lane id=":6_2_4" index="4" speed="13.89" length="111.80" width="3.80" shape="359.90,1913.52 350.07,1937.16"/>
    </edge>
    <edge id=":7_0" function="internal">
        <lane id=":7_0_0" index="0" speed="13.89" length="167.53" width="3.75" shape="212.77,2256.07 145.01,2408.99"/>
        <lane id=":7_0_1" index="1" speed="13.89" length="167.53" width="3.75" shape="209.37,2254.49 145.01,2408.99"/>
        <lane id=":7_0_2" index="2" speed="13.89" length="167.53" width="3.75" shape="209.37,2254.49 141.56,2407.50"/>
        <lane id=":7_0_3" index="3" speed="13.89" length="167.53" width="3.75" shape="205.98,2252.90 141.56,2407.50"/>
        <lane id=":7_0_4" index="4" speed="13.89" length="167.53" width="3.75" shape="205.98,2252.90 138.12,2406.02"/>
        <lane id=":7_0_5" index="5" speed="13.89" length="167.53" width="3.75" shape="202.58,2251.32 138.12,2406.02"/>
        <lane id=":7_0_6" index="6" speed="13.89" length="167.53" width="3.75" shape="202.58,2251.32 134.68,2404.53"/>
        <lane id=":7_0_7" index="7" speed="13.89" length="167.53" width="3.75" shape="199.18,2249.73 134.68,2404.53"/>
        <lane id=":7_0_8" index="8" speed="13.89" length="167.53" width="3.75" shape="199.18,2249.73 131.24,2403.04"/>
        <lane id=":7_0_9" index="9" speed="13.89" length="167.53" width="3.75" shape="195.76,2248.14 131.24,2403.04"/>
    </edge>
    <edge id=":8_0" function="internal">
        <lane id=":8_0_0" index="0" speed="13.89" length="166.10" width="3.75" shape="106.99,2391.75 168.77,2237.24"/>
        <lane id=":8_0_1" index="1" speed="13.89" length="166.10" width="3.75" shape="106.99,2391.75 172.17,2238.83"/>
        <lane id=":8_0_2" index="2" speed="13.89" length="166.10" width="3.75" shape="110.43,2393.24 172.17,2238.83"/>
        <lane id=":8_0_3" index="3" speed="13.89" length="166.10" width="3.75" shape="110.43,2393.24 175.56,2240.41"/>
        <lane id=":8_0_4" index="4" speed="13.89" length="166.10" width="3.75" shape="113.87,2394.72 175.56,2240.41"/>
        <lane id=":8_0_5" index="5" speed="13.89" length="166.10" width="3.75" shape="113.87,2394.72 178.96,2242.00"/>
        <lane id=":8_0_6" index="6" speed="13.89" length="166.10" width="3.75" shape="117.31,2396.21 178.96,2242.00"/>
        <lane id=":8_0_7" index="7" speed="13.89" length="166.10" width="3.75" shape="117.31,2396.21 182.36,2243.58"/>
        <lane id=":8_0_8" index="8" speed="13.89" length="166.10" width="3.75" shape="120.75,2397.70 182.36,2243.58"/>
        <lane id=":8_0_9" index="9" speed="13.89" length="166.10" width="3.80" shape="120.75,2397.70 185.78,2245.18"/>
    </edge>
    <edge id=":9_0" function="internal">
        <lane id=":9_0_0" index="0" speed="13.89" length="3.06" width="3.50" shape="632.02,1471.82 630.34,1474.47"/>
        <lane id=":9_0_1" index="1" speed="13.89" length="3.06" width="3.50" shape="629.00,1470.06 627.39,1472.58"/>
    </edge>
    <edge id=":9_2" function="internal">
        <lane id=":9_2_0" index="0" speed="13.89" length="10.84" width="3.50" shape="622.92,1466.54 630.34,1474.47"/>
        <lane id=":9_2_1" index="1" speed="13.89" length="10.84" width="3.50" shape="619.90,1464.78 627.39,1472.58"/>
    </edge>

    <edge id="21[0]" from="21-begin" to="0" priority="-1" type="1" spreadType="center" shape="192.72,1018.30 375.59,1084.18 435.92,1095.21 494.15,1090.60 523.81,1082.90">
        <lane id="21[0]_0" index="0" speed="13.89" length="343.28" width="3.50" shape="193.32,1016.66 376.05,1082.48 436.01,1093.45 493.86,1088.87 521.94,1081.57"/>
        <lane id="21[0]_1" index="1" speed="13.89" length="343.28" width="3.50" shape="192.13,1019.95 375.13,1085.87 435.83,1096.98 494.45,1092.33 522.82,1084.96"/>
    </edge>
    <edge id="21[1]" from="0" to="1" priority="-1" type="1" spreadType="center" shape="523.81,1082.90 559.89,1073.52 653.69,1037.66 698.74,1012.60 732.14,986.07 766.20,944.97 807.25,877.02 831.20,841.96">
        <lane id="21[1]_0" index="0" speed="13.89" length="303.14" width="3.50" shape="621.76,1047.99 652.95,1036.07 697.76,1011.14 730.91,984.81 764.77,943.95 805.78,876.07 829.76,840.97"/>
        <lane id="21[1]_1" index="1" speed="13.89" length="303.14" width="3.50" shape="622.65,1051.40 654.43,1039.25 699.71,1014.06 733.37,987.32 767.63,945.98 808.73,877.97 832.65,842.94"/>
    </edge>
    <edge id="22" from="2" to="3" priority="-1" type="1" spreadType="center" shape="362.34,1863.29 314.44,1965.75 314.95,1964.74 317.21,1960.28 319.47,1955.82 321.73,1951.35 323.98,1946.89 326.24,1942.43 328.50,1937.97 330.75,1933.51 333.01,1929.05 335.27,1924.58 337.52,1920.12 339.78,1915.66 342.04,1911.20 344.29,1906.74 346.55,1902.28 348.81,1897.81 351.06,1893.35 353.32,1888.89 355.58,1884.43 357.83,1879.97 360.09,1875.51 362.35,1871.04 364.60,1866.58 366.86,1862.12 369.12,1857.66 371.37,1853.20 373.63,1848.74 375.89,1844.27 378.14,1839.81 380.40,1835.35 382.66,1830.89 384.91,1826.43 387.17,1821.96 389.43,1817.50 391.68,1813.04 393.94,1808.58 396.20,1804.12 398.46,1799.66 400.71,1795.19 402.97,1790.73 405.23,1786.27 407.48,1781.81 409.74,1777.35 412.00,1772.89 414.25,1768.42 416.51,1763.96 418.77,1759.50 421.02,1755.04 423.28,1750.58 425.54,1746.12 427.79,1741.65 430.05,1737.19 432.31,1732.73 434.56,1728.27 436.82,1723.81 439.08,1719.35 441.33,1714.88 443.59,1710.42 445.85,1705.96 448.10,1701.50 450.36,1697.04 452.62,1692.57 454.87,1688.11 457.13,1683.65 459.39,1679.19 461.64,1674.73 463.90,1670.27 466.16,1665.80 468.42,1661.34 470.67,1656.88 472.93,1652.42 475.19,1647.96 477.44,1643.50 479.70,1639.03 481.96,1634.57 484.21,1630.11 486.47,1625.65 488.73,1621.19 490.98,1616.73 493.24,1612.26 495.50,1607.80 497.75,1603.34 500.01,1598.88 502.27,1594.42 504.52,1589.96 506.78,1585.49 509.04,1581.03 511.29,1576.57 513.55,1572.11 515.81,1567.65 518.06,1563.18 520.32,1558.72 522.58,1554.26 524.83,1549.80 527.09,1545.34 529.35,1540.88 531.60,1536.41 533.86,1531.95 536.12,1527.49 538.37,1523.03 540.63,1518.57 542.89,1514.11 545.15,1509.64 547.40,1505.18 549.66,1500.72 551.92,1496.26 554.17,1491.80 556.43,1487.34 558.69,1482.87 560.94,1478.41 563.20,1473.95 565.46,1469.49 567.71,1465.03 569.97,1460.56 572.23,1456.10 574.48,1451.64 576.74,1447.18 579.00,1442.72 581.25,1438.26 583.51,1433.79 585.77,1429.33 588.02,1424.87 590.28,1420.41 592.54,1415.95 594.79,1411.49 597.05,1407.02 599.31,1402.56 601.56,1398.10 603.82,1393.64 606.08,1389.18 608.33,1384.72 610.59,1380.25 612.85,1375.79 615.10,1371.33 617.36,1366.87 619.62,1362.41 621.88,1357.95 624.13,1353.48 626.39,1349.02 628.65,1344.56 630.90,1340.10 633.16,1335.64 635.42,1331.17 637.67,1326.71 639.93,1322.25 642.19,1317.79 644.44,1313.33 646.70,1308.87 648.96,1304.40 651.21,1299.94 653.47,1295.48 655.73,1291.02 657.98,1286.56 660.24,1282.10 662.50,1277.63 664.75,1273.17 667.01,1268.71 669.27,1264.25 671.52,1259.79 673.78,1255.33 676.04,1250.86 678.29,1246.40 680.55,1241.94 682.81,1237.48 685.06,1233.02 687.32,1228.56 689.58,1224.09 691.84,1219.63 694.09,1215.17 696.35,1210.71 698.61,1206.25 700.86,1201.78 703.12,1197.32 705.38,1192.86 707.63,1188.40 709.89,1183.94 712.15,1179.48 714.40,1175.01 716.66,1170.55 718.92,1166.09 721.17,1161.63 723.43,1157.17 725.69,1152.71 727.94,1148.24 730.20,1143.78 732.46,1139.32 734.71,1134.86 736.97,1130.40 739.23,1125.94 741.48,1121.47 743.74,1117.01 746.00,1112.55 748.25,1108.09 750.51,1103.63 752.77,1099.17 755.02,1094.70 757.28,1090.24 759.54,1085.78 761.79,1081.32 764.05,1076.86 766.31,1072.39 768.57,1067.93 770.82,1063.47 773.08,1059.01 775.34,1054.55 777.59,1050.09 779.85,1045.62 782.11,1041.16 784.36,1036.70 786.62,1032.24 788.88,1027.78 791.13,1023.32 793.39,1018.85 795.65,1014.39 797.90,1009.93 800.16,1005.47 802.42,1001.01 804.67,996.55 806.93,992.08 809.19,987.62 811.44,983.16 813.70,978.70 815.96,974.24 818.21,969.78 820.47,965.31 822.73,960.85 824.98,956.39 827.24,951.93 829.50,947.47 831.75,943.00 834.01,938.54 836.27,934.08 838.52,929.62 840.78,925.16 843.04,920.70 845.30,916.23 847.55,911.77 849.81,907.31 852.07,902.85 854.32,898.39 856.58,893.93 858.84,889.46 861.09,885.00 863.35,880.54 865.61,876.08 867.86,871.62 870.12,867.16 872.38,862.69 874.63,858.23 876.89,853.77 879.15,849.31 881.40,844.85 883.66,840.38 885.92,835.92 888.17,831.46 890.43,827.00 892.69,822.54 894.94,818.08 897.20,813.61 899.46,809.15 901.71,804.69 903.97,800.23 906.23,795.77 908.48,791.31 910.74,786.84 913.00,782.38 915.25,777.92 917.51,773.46 919.77,769.00 922.03,764.54 924.28,760.07 926.54,755.61 928.80,751.15 931.05,746.69 933.31,742.23 935.57,737.77 937.82,733.30 940.08,728.84 942.34,724.38 944.59,719.92 946.85,715.46 949.11,710.99 951.36,706.53 953.62,702.07 955.88,697.61 958.13,693.15 960.39,688.69 962.65,684.22 964.90,679.76 967.16,675.30 969.42,670.84 971.67,666.38 973.93,661.92 976.19,657.45 978.44,652.99 980.70,648.53 982.96,644.07 985.21,639.61 987.47,635.15 989.73,630.68 991.99,626.22 994.24,621.76 996.50,617.30 998.76,612.84 1001.01,608.38 1003.27,603.91 1005.53,599.45 1007.78,594.99 1010.04,590.53 1012.30,586.07 1014.55,581.60 1016.81,577.14 1019.07,572.68 1021.32,568.22 1023.58,563.76 1025.84,559.30 1028.09,554.83 1030.35,550.37 1032.61,545.91 1034.86,541.45 1037.12,536.99 1039.38,532.53 1041.63,528.06 1043.89,523.60 1046.15,519.14 1048.41,514.68 1050.66,510.22 1052.92,505.76 1055.18,501.30 1057.44,496.84 1059.70,492.38 1061.96,487.92 1064.23,483.46 1066.49,479.00 1068.76,474.54 1071.02,470.09 1073.29,465.63 1075.56,461.18 1077.83,456.72 1080.10,452.27 1082.38,447.82 1084.65,443.36 1086.93,438.91 1089.21,434.46 1091.50,430.02 1093.78,425.57 1096.07,421.12 1098.36,416.68 1100.65,412.23 1102.95,407.79 1105.25,403.35 1107.55,398.91 1109.85,394.48 1112.16,390.04 1114.47,385.61 1116.79,381.17 1119.10,376.74 1121.42,372.31 1123.75,367.89 1126.08,363.46 1128.41,359.04 1130.75,354.62 1133.09,350.20 1135.43,345.78 1137.78,341.37 1140.13,336.96 1142.49,332.55 1144.85,328.14 1147.21,323.74 1149.58,319.33 1151.96,314.93 1154.34,310.54 1156.73,306.14 1159.12,301.75 1161.51,297.36 1163.91,292.98 1166.32,288.59 1168.73,284.21 1171.15,279.84 1173.57,275.46 1176.00,271.09 1178.43,266.72 1180.87,262.36 1183.32,258.00 1185.77,253.64 1188.23,249.29 1190.69,244.94 1190.77,244.81">
        <lane id="22_0" index="0" speed="13.89" length="1509.39" width="3.75" shape="358.66,1861.72 360.17,1858.74 362.42,1854.27 364.68,1849.81 366.94,1845.35 369.20,1840.89 371.45,1836.43 373.71,1831.96 375.97,1827.50 378.22,1823.04 380.48,1818.58 382.74,1814.12 384.99,1809.66 387.25,1805.19 389.51,1800.73 391.76,1796.27 394.02,1791.81 396.28,1787.35 398.53,1782.89 400.79,1778.42 403.05,1773.96 405.30,1769.50 407.56,1765.04 409.82,1760.58 412.07,1756.12 414.33,1751.65 416.59,1747.19 418.84,1742.73 421.10,1738.27 423.36,1733.81 425.61,1729.35 427.87,1724.88 430.13,1720.42 432.38,1715.96 434.64,1711.50 436.90,1707.04 439.15,1702.57 441.41,1698.11 443.67,1693.65 445.93,1689.19 448.18,1684.73 450.44,1680.27 452.70,1675.80 454.95,1671.34 457.21,1666.88 459.47,1662.42 461.72,1657.96 463.98,1653.50 466.24,1649.03 468.49,1644.57 470.75,1640.11 473.01,1635.65 475.26,1631.19 477.52,1626.73 479.78,1622.26 482.03,1617.80 484.29,1613.34 486.55,1608.88 488.80,1604.42 491.06,1599.96 493.32,1595.49 495.57,1591.03 497.83,1586.57 500.09,1582.11 502.34,1577.65 504.60,1573.18 506.86,1568.72 509.11,1564.26 511.37,1559.80 513.63,1555.34 515.88,1550.88 518.14,1546.41 520.40,1541.95 522.66,1537.49 524.91,1533.03 527.17,1528.57 529.43,1524.11 531.68,1519.64 533.94,1515.18 536.20,1510.72 538.45,1506.26 540.71,1501.80 542.97,1497.34 545.22,1492.87 547.48,1488.41 549.74,1483.95 551.99,1479.49 554.25,1475.03 556.51,1470.56 558.76,1466.10 561.02,1461.64 563.28,1457.18 565.53,1452.72 567.79,1448.26 570.05,1443.79 572.30,1439.33 574.56,1434.87 576.82,1430.41 579.07,1425.95 581.33,1421.49 583.59,1417.02 585.84,1412.56 588.10,1408.10 590.36,1403.64 592.61,1399.18 594.87,1394.72 597.13,1390.25 599.39,1385.79 601.64,1381.33 603.90,1376.87 606.16,1372.41 608.41,1367.95 610.67,1363.48 612.93,1359.02 615.18,1354.56 617.44,1350.10 619.70,1345.64 621.95,1341.17 624.21,1336.71 626.47,1332.25 628.72,1327.79 630.98,1323.33 633.24,1318.87 635.49,1314.40 637.75,1309.94 640.01,1305.48 642.26,1301.02 644.52,1296.56 646.78,1292.10 649.03,1287.63 651.29,1283.17 653.55,1278.71 655.80,1274.25 658.06,1269.79 660.32,1265.33 662.57,1260.86 664.83,1256.40 667.09,1251.94 669.35,1247.48 671.60,1243.02 673.86,1238.56 676.12,1234.09 678.37,1229.63 680.63,1225.17 682.89,1220.71 685.14,1216.25 687.40,1211.78 689.66,1207.32 691.91,1202.86 694.17,1198.40 696.43,1193.94 698.68,1189.48 700.94,1185.01 703.20,1180.55 705.45,1176.09 707.71,1171.63 709.97,1167.17 712.22,1162.71 714.48,1158.24 716.74,1153.78 718.99,1149.32 721.25,1144.86 723.51,1140.40 725.76,1135.94 728.02,1131.47 730.28,1127.01 732.53,1122.55 734.79,1118.09 737.05,1113.63 739.30,1109.17 741.56,1104.70 743.82,1100.24 746.08,1095.78 748.33,1091.32 750.59,1086.86 752.85,1082.39 755.10,1077.93 757.36,1073.47 759.62,1069.01 761.87,1064.55 764.13,1060.09 766.39,1055.62 768.64,1051.16 770.90,1046.70 773.16,1042.24 775.41,1037.78 777.67,1033.32 779.93,1028.85 782.18,1024.39 784.44,1019.93 786.70,1015.47 788.95,1011.01 791.21,1006.55 793.47,1002.08 795.72,997.62 797.98,993.16 800.24,988.70 802.49,984.24 804.75,979.78 807.01,975.31 809.26,970.85 811.52,966.39 813.78,961.93 816.03,957.47 818.29,953.00 820.55,948.54 822.81,944.08 825.06,939.62 827.32,935.16 829.58,930.70 831.83,926.23 834.09,921.77 836.35,917.31 838.60,912.85 840.86,908.39 843.12,903.93 845.37,899.46 847.63,895.00 849.89,890.54 852.14,886.08 854.40,881.62 856.66,877.16 858.91,872.69 861.17,868.23 863.43,863.77 865.68,859.31 867.94,854.85 870.20,850.39 872.45,845.92 874.71,841.46 876.97,837.00 879.22,832.54 881.48,828.08 883.74,823.61 885.99,819.15 888.25,814.69 890.51,810.23 892.76,805.77 895.02,801.31 897.28,796.84 899.54,792.38 901.79,787.92 904.05,783.46 906.31,779.00 908.56,774.54 910.82,770.07 913.08,765.61 915.33,761.15 917.59,756.69 919.85,752.23 922.10,747.77 924.36,743.30 926.62,738.84 928.87,734.38 931.13,729.92 933.39,725.46 935.64,720.99 937.90,716.53 940.16,712.07 942.41,707.61 944.67,703.15 946.93,698.69 949.18,694.22 951.44,689.76 953.70,685.30 955.95,680.84 958.21,676.38 960.47,671.92 962.72,667.45 964.98,662.99 967.24,658.53 969.50,654.07 971.75,649.61 974.01,645.15 976.27,640.68 978.52,636.22 980.78,631.76 983.04,627.30 985.29,622.84 987.55,618.38 989.81,613.91 992.06,609.45 994.32,604.99 996.58,600.53 998.83,596.07 1001.09,591.60 1003.35,587.14 1005.60,582.68 1007.61,578.72"/>
        <lane id="22_1" index="1" speed="13.89" length="1509.39" width="3.75" shape="362.06,1863.30 363.51,1860.43 365.77,1855.97 368.03,1851.50 370.28,1847.04 372.54,1842.58 374.80,1838.12 377.05,1833.66 379.31,1829.20 381.57,1824.73 383.83,1820.27 386.08,1815.81 388.34,1811.35 390.60,1806.89 392.85,1802.43 395.11,1797.96 397.37,1793.50 399.62,1789.04 401.88,1784.58 404.14,1780.12 406.39,1775.65 408.65,1771.19 410.91,1766.73 413.16,1762.27 415.42,1757.81 417.68,1753.35 419.93,1748.88 422.19,1744.42 424.45,1739.96 426.70,1735.50 428.96,1731.04 431.22,1726.58 433.47,1722.11 435.73,1717.65 437.99,1713.19 440.24,1708.73 442.50,1704.27 444.76,1699.81 447.01,1695.34 449.27,1690.88 451.53,1686.42 453.78,1681.96 456.04,1677.50 458.30,1673.04 460.56,1668.57 462.81,1664.11 465.07,1659.65 467.33,1655.19 469.58,1650.73 471.84,1646.26 474.10,1641.80 476.35,1637.34 478.61,1632.88 480.87,1628.42 483.12,1623.96 485.38,1619.49 487.64,1615.03 489.89,1610.57 492.15,1606.11 494.41,1601.65 496.66,1597.19 498.92,1592.72 501.18,1588.26 503.43,1583.80 505.69,1579.34 507.95,1574.88 510.20,1570.42 512.46,1565.95 514.72,1561.49 516.97,1557.03 519.23,1552.57 521.49,1548.11 523.74,1543.65 526.00,1539.18 528.26,1534.72 530.52,1530.26 532.77,1525.80 535.03,1521.34 537.29,1516.87 539.54,1512.41 541.80,1507.95 544.06,1503.49 546.31,1499.03 548.57,1494.57 550.83,1490.10 553.08,1485.64 555.34,1481.18 557.60,1476.72 559.85,1472.26 562.11,1467.80 564.37,1463.33 566.62,1458.87 568.88,1454.41 571.14,1449.95 573.39,1445.49 575.65,1441.03 577.91,1436.56 580.16,1432.10 582.42,1427.64 584.68,1423.18 586.93,1418.72 589.19,1414.26 591.45,1409.79 593.70,1405.33 595.96,1400.87 598.22,1396.41 600.47,1391.95 602.73,1387.48 604.99,1383.02 607.25,1378.56 609.50,1374.10 611.76,1369.64 614.02,1365.18 616.27,1360.71 618.53,1356.25 620.79,1351.79 623.04,1347.33 625.30,1342.87 627.56,1338.41 629.81,1333.94 632.07,1329.48 634.33,1325.02 636.58,1320.56 638.84,1316.10 641.10,1311.64 643.35,1307.17 645.61,1302.71 647.87,1298.25 650.12,1293.79 652.38,1289.33 654.64,1284.87 656.89,1280.40 659.15,1275.94 661.41,1271.48 663.66,1267.02 665.92,1262.56 668.18,1258.09 670.43,1253.63 672.69,1249.17 674.95,1244.71 677.20,1240.25 679.46,1235.79 681.72,1231.32 683.98,1226.86 686.23,1222.40 688.49,1217.94 690.75,1213.48 693.00,1209.02 695.26,1204.55 697.52,1200.09 699.77,1195.63 702.03,1191.17 704.29,1186.71 706.54,1182.25 708.80,1177.78 711.06,1173.32 713.31,1168.86 715.57,1164.40 717.83,1159.94 720.08,1155.47 722.34,1151.01 724.60,1146.55 726.85,1142.09 729.11,1137.63 731.37,1133.17 733.62,1128.70 735.88,1124.24 738.14,1119.78 740.39,1115.32 742.65,1110.86 744.91,1106.40 747.16,1101.93 749.42,1097.47 751.68,1093.01 753.93,1088.55 756.19,1084.09 758.45,1079.63 760.71,1075.16 762.96,1070.70 765.22,1066.24 767.48,1061.78 769.73,1057.32 771.99,1052.86 774.25,1048.39 776.50,1043.93 778.76,1039.47 781.02,1035.01 783.27,1030.55 785.53,1026.08 787.79,1021.62 790.04,1017.16 792.30,1012.70 794.56,1008.24 796.81,1003.78 799.07,999.31 801.33,994.85 803.58,990.39 805.84,985.93 808.10,981.47 810.35,977.01 812.61,972.54 814.87,968.08 817.12,963.62 819.38,959.16 821.64,954.70 823.89,950.24 826.15,945.77 828.41,941.31 830.67,936.85 832.92,932.39 835.18,927.93 837.44,923.47 839.69,919.00 841.95,914.54 844.21,910.08 846.46,905.62 848.72,901.16 850.98,896.69 853.23,892.23 855.49,887.77 857.75,883.31 860.00,878.85 862.26,874.39 864.52,869.92 866.77,865.46 869.03,861.00 871.29,856.54 873.54,852.08 875.80,847.62 878.06,843.15 880.31,838.69 882.57,834.23 884.83,829.77 887.08,825.31 889.34,820.85 891.60,816.38 893.85,811.92 896.11,807.46 898.37,803.00 900.62,798.54 902.88,794.08 905.14,789.61 907.40,785.15 909.65,780.69 911.91,776.23 914.17,771.77 916.42,767.30 918.68,762.84 920.94,758.38 923.19,753.92 925.45,749.46 927.71,745.00 929.96,740.53 932.22,736.07 934.48,731.61 936.73,727.15 938.99,722.69 941.25,718.23 943.50,713.76 945.76,709.30 948.02,704.84 950.27,700.38 952.53,695.92 954.79,691.46 957.04,686.99 959.30,682.53 961.56,678.07 963.81,673.61 966.07,669.15 968.33,664.69 970.58,660.22 972.84,655.76 975.10,651.30 977.35,646.84 979.61,642.38 981.87,637.91 984.13,633.45 986.38,628.99 988.64,624.53 990.90,620.07 993.15,615.61 995.41,611.14 997.67,606.68 999.92,602.22 1002.18,597.76 1004.44,593.30 1006.69,588.84 1008.95,584.37 1011.21,579.91 1013.46,575.45 1015.72,570.99 1017.98,566.53 1020.23,562.07 1022.49,557.60 1024.75,553.14 1027.00,548.68 1027.11,548.47"/>