<?xml version="1.0" encoding="UTF-8"?>

<!-- generated on 11/04/21 23:19:18 by Eclipse SUMO netedit Version 1.8.0
<configuration xmlns:xsi="http://www.w3.org/2001/XMLSchema-instance" xsi:noNamespaceSchemaLocation="http://sumo.dlr.de/xsd/netconvertConfiguration.xsd">

    <input>
        <sumo-net-file value="F:\sumo_pro\traci_main\main\guangshen_ALL.net.xml"/>
    </input>

    <output>
        <output-file value="F:\sumo_pro\traci_main\main\guangshen_ALL.net.xml"/>
    </output>

    <processing>
        <geometry.min-radius.fix.railways value="false"/>
        <geometry.max-grade.fix value="false"/>
        <offset.disable-normalization value="true"/>
        <lefthand value="false"/>
    </processing>

    <junctions>
        <no-turnarounds value="true"/>
        <junctions.corner-detail value="5"/>
        <junctions.limit-turn-speed value="5.5"/>
        <rectangular-lane-cut value="false"/>
    </junctions>

    <pedestrian>
        <walkingareas value="false"/>
    </pedestrian>

    <report>
        <aggregate-warnings value="5"/>
    </report>

</configuration>
-->

<net version="1.6" junctionCornerDetail="5" limitTurnSpeed="5.50" xmlns:xsi="http://www.w3.org/2001/XMLSchema-instance" xsi:noNamespaceSchemaLocation="http://sumo.dlr.de/xsd/net_file.xsd">

    <location netOffset="-490995.10,-2524271.07" convBoundary="0.00,0.00,7078.12,11001.78" origBoundary="490995.10,2524271.07,498073.21,2535265.93" projParameter="!"/>

    <edge id=":10_0" function="internal">
        <lane id=":10_0_0" index="0" speed="13.89" length="228.02" width="3.75" shape="731.00,8404.17 722.85,8632.06"/>
        <lane id=":10_0_1" index="1" speed="13.89" length="228.02" width="3.75" shape="727.25,8404.09 722.85,8632.06"/>
        <lane id=":10_0_2" index="2" speed="13.89" length="228.02" width="3.75" shape="723.50,8404.01 719.10,8631.98"/>
        <lane id=":10_0_3" index="3" speed="13.89" length="228.02" width="3.75" shape="719.76,8403.93 715.36,8631.91"/>
        <lane id=":10_0_4" index="4" speed="13.89" length="228.02" width="3.75" shape="716.01,8403.85 711.61,8631.83"/>
        <lane id=":10_0_5" index="5" speed="13.89" length="228.02" width="3.75" shape="712.26,8403.77 707.86,8631.76"/>
    </edge>
    <edge id=":10-begin_0" function="internal">
        <lane id=":10-begin_0_0" index="0" speed="13.89" length="60.53" width="3.75" shape="1430.82,5196.87 1412.40,5254.55"/>
        <lane id=":10-begin_0_1" index="1" speed="13.89" length="60.53" width="3.75" shape="1427.30,5195.57 1408.88,5253.24"/>
        <lane id=":10-begin_0_2" index="2" speed="13.89" length="60.53" width="3.75" shape="1423.78,5194.26 1405.37,5251.93"/>
        <lane id=":10-begin_0_3" index="3" speed="13.89" length="60.53" width="3.75" shape="1420.26,5192.96 1401.86,5250.62"/>
        <lane id=":10-begin_0_4" index="4" speed="13.89" length="60.53" width="3.75" shape="1416.75,5191.66 1398.34,5249.31"/>
    </edge>
    <edge id=":16_0" function="internal">
        <lane id=":16_0_0" index="0" speed="13.89" length="91.89" width="3.75" shape="2619.29,2742.10 2578.79,2824.62"/>
        <lane id=":16_0_1" index="1" speed="13.89" length="91.89" width="3.75" shape="2619.29,2742.10 2575.46,2822.89"/>
        <lane id=":16_0_2" index="2" speed="13.89" length="91.89" width="3.75" shape="2615.96,2740.38 2575.46,2822.89"/>
        <lane id=":16_0_3" index="3" speed="13.89" length="91.89" width="3.75" shape="2615.96,2740.38 2572.14,2821.15"/>
        <lane id=":16_0_4" index="4" speed="13.89" length="91.89" width="3.75" shape="2612.63,2738.65 2572.14,2821.15"/>
        <lane id=":16_0_5" index="5" speed="13.89" length="91.89" width="3.75" shape="2612.63,2738.65 2568.82,2819.42"/>
        <lane id=":16_0_6" index="6" speed="13.89" length="91.89" width="3.75" shape="2609.29,2736.93 2568.82,2819.42"/>
        <lane id=":16_0_7" index="7" speed="13.89" length="91.89" width="3.75" shape="2609.29,2736.93 2565.49,2817.68"/>
        <lane id=":16_0_8" index="8" speed="13.89" length="91.89" width="3.75" shape="2605.96,2735.20 2565.49,2817.68"/>
        <lane id=":16_0_9" index="9" speed="13.89" length="91.89" width="3.75" shape="2605.96,2735.20 2562.17,2815.95"/>
    </edge>
    <edge id=":17_0" function="internal">
        <lane id=":17_0_0" index="0" speed="13.89" length="230.31" width="3.50" shape="2444.34,3088.12 2349.69,3298.00"/>
        <lane id=":17_0_1" index="1" speed="13.89" length="230.31" width="3.50" shape="2440.99,3086.45 2346.50,3296.56"/>
    </edge>
    <edge id=":17_2" function="internal">
        <lane id=":17_2_0" index="0" speed="13.89" length="230.85" width="3.75" shape="2440.99,3086.45 2337.93,3292.69"/>
        <lane id=":17_2_1" index="1" speed="13.89" length="230.85" width="3.75" shape="2437.63,3084.77 2334.50,3291.14"/>
        <lane id=":17_2_2" index="2" speed="13.89" length="230.85" width="3.75" shape="2434.28,3083.09 2331.08,3289.59"/>
        <lane id=":17_2_3" index="3" speed="13.89" length="230.85" width="3.75" shape="2430.92,3081.42 2327.66,3288.05"/>
        <lane id=":17_2_4" index="4" speed="13.89" length="230.85" width="3.75" shape="2427.57,3079.74 2324.24,3286.50"/>
    </edge>
    <edge id=":19_0" function="internal">
        <lane id=":19_0_0" index="0" speed="13.89" length="167.53" width="3.75" shape="1634.01,4702.80 1566.21,4855.79"/>
        <lane id=":19_0_1" index="1" speed="13.89" length="167.53" width="3.75" shape="1630.59,4701.25 1566.21,4855.79"/>
        <lane id=":19_0_2" index="2" speed="13.89" length="167.53" width="3.75" shape="1630.59,4701.25 1562.76,4854.31"/>
        <lane id=":19_0_3" index="3" speed="13.89" length="167.53" width="3.75" shape="1627.18,4699.70 1562.76,4854.31"/>
        <lane id=":19_0_4" index="4" speed="13.89" length="167.53" width="3.75" shape="1627.18,4699.70 1559.32,4852.82"/>
        <lane id=":19_0_5" index="5" speed="13.89" length="167.53" width="3.75" shape="1623.77,4698.14 1559.32,4852.82"/>
        <lane id=":19_0_6" index="6" speed="13.89" length="167.53" width="3.75" shape="1623.77,4698.14 1555.88,4851.33"/>
        <lane id=":19_0_7" index="7" speed="13.89" length="167.53" width="3.75" shape="1620.35,4696.59 1555.88,4851.33"/>
        <lane id=":19_0_8" index="8" speed="13.89" length="167.53" width="3.75" shape="1620.35,4696.59 1552.43,4849.85"/>
        <lane id=":19_0_9" index="9" speed="13.89" length="167.53" width="3.75" shape="1616.92,4695.03 1552.43,4849.85"/>
    </edge>
    <edge id=":2_0" function="internal">
        <lane id=":2_0_0" index="0" speed="13.89" length="64.69" width="3.50" shape="1018.23,6614.00 1015.96,6626.68 1013.58,6645.96 1011.48,6665.30 1010.08,6678.16"/>
    </edge>
    <edge id=":2_1" function="internal">
        <lane id=":2_1_0" index="0" speed="13.89" length="45.70" width="3.75" shape="1018.23,6614.00 1005.20,6657.80"/>
    </edge>
    <edge id=":2_2" function="internal">
        <lane id=":2_2_0" index="0" speed="13.89" length="15.30" width="3.50" shape="1014.63,6612.95 1012.38,6625.73 1012.10,6628.03"/>
    </edge>
    <edge id=":2_3" function="internal">
        <lane id=":2_3_0" index="0" speed="13.89" length="45.74" width="3.75" shape="1014.63,6612.95 1001.59,6656.79"/>
    </edge>
    <edge id=":2_4" function="internal">
        <lane id=":2_4_0" index="0" speed="13.89" length="49.99" width="3.50" shape="1012.10,6628.03 1010.04,6645.22 1007.99,6664.77 1006.60,6677.72"/>
    </edge>
    <edge id=":21_0" function="internal">
        <lane id=":21_0_0" index="0" speed="13.89" length="10.84" width="3.50" shape="2044.13,3913.32 2051.53,3921.27"/>
        <lane id=":21_0_1" index="1" speed="13.89" length="10.84" width="3.50" shape="2041.11,3911.56 2048.58,3919.38"/>
    </edge>
    <edge id=":22_0" function="internal">
        <lane id=":22_0_0" index="0" speed="13.89" length="63.74" width="3.50" shape="2291.66,3462.52 2290.48,3475.19 2290.19,3494.30 2290.63,3513.43 2291.70,3526.15"/>
    </edge>
    <edge id=":22_1" function="internal">
        <lane id=":22_1_0" index="0" speed="13.89" length="51.61" width="3.50" shape="2291.66,3462.52 2281.90,3513.20"/>
    </edge>
    <edge id=":22_2" function="internal">
        <lane id=":22_2_0" index="0" speed="13.89" length="15.63" width="3.50" shape="2288.23,3461.79 2287.06,3474.67 2287.02,3477.36"/>
    </edge>
    <edge id=":22_3" function="internal">
        <lane id=":22_3_0" index="0" speed="13.89" length="51.47" width="3.50" shape="2288.23,3461.79 2278.49,3512.33"/>
    </edge>
    <edge id=":22_4" function="internal">
        <lane id=":22_4_0" index="0" speed="13.89" length="49.46" width="3.50" shape="2287.02,3477.36 2286.75,3494.25 2287.19,3513.84 2288.26,3526.77"/>
    </edge>
    <edge id=":23_0" function="internal">
        <lane id=":23_0_0" index="0" speed="13.89" length="33.59" width="3.50" shape="1900.24,4018.42 1913.06,3987.38"/>
    </edge>
    <edge id=":23_1" function="internal">
        <lane id=":23_1_0" index="0" speed="13.89" length="34.51" width="3.50" shape="1900.24,4018.42 1904.31,4011.33 1909.62,4003.98 1914.97,3996.64 1919.17,3989.61"/>
    </edge>
    <edge id=":23_2" function="internal">
        <lane id=":23_2_0" index="0" speed="13.89" length="33.77" width="3.50" shape="1903.46,4019.79 1916.35,3988.58"/>
    </edge>
    <edge id=":23_3" function="internal">
        <lane id=":23_3_0" index="0" speed="13.89" length="34.69" width="3.50" shape="1903.46,4019.79 1907.54,4012.68 1912.88,4005.27 1918.26,3997.88 1922.47,3990.82"/>
    </edge>
    <edge id=":27_0" function="internal">
        <lane id=":27_0_0" index="0" speed="13.89" length="188.27" width="3.80" shape="4500.87,1142.10 4331.05,1223.15"/>
        <lane id=":27_0_1" index="1" speed="13.89" length="188.27" width="3.80" shape="4499.41,1138.62 4329.39,1219.73"/>
    </edge>
    <edge id=":27_2" function="internal">
        <lane id=":27_2_0" index="0" speed="13.89" length="189.22" width="3.75" shape="4499.41,1138.62 4324.41,1209.50"/>
        <lane id=":27_2_1" index="1" speed="13.89" length="189.22" width="3.80" shape="4497.94,1135.12 4322.76,1206.10"/>
        <lane id=":27_2_2" index="2" speed="13.89" length="189.22" width="3.80" shape="4496.47,1131.61 4321.10,1202.67"/>
        <lane id=":27_2_3" index="3" speed="13.89" length="189.22" width="3.80" shape="4495.00,1128.11 4319.43,1199.25"/>
        <lane id=":27_2_4" index="4" speed="13.89" length="189.22" width="3.80" shape="4493.59,1124.74 4317.77,1195.82"/>
    </edge>
    <edge id=":27-end_0" function="internal">
        <lane id=":27-end_0_0" index="0" speed="13.89" length="0.30" width="3.75" shape="1453.39,5135.85 1453.29,5136.11"/>
        <lane id=":27-end_0_1" index="1" speed="13.89" length="0.30" width="3.75" shape="1449.88,5134.54 1449.78,5134.81"/>
        <lane id=":27-end_0_2" index="2" speed="13.89" length="0.30" width="3.75" shape="1446.36,5133.23 1446.26,5133.51"/>
        <lane id=":27-end_0_3" index="3" speed="13.89" length="0.30" width="3.75" shape="1442.85,5131.92 1442.74,5132.21"/>
        <lane id=":27-end_0_4" index="4" speed="13.89" length="0.30" width="3.75" shape="1439.34,5130.61 1439.22,5130.91"/>
    </edge>
    <edge id=":28_0" function="internal">
        <lane id=":28_0_0" index="0" speed="13.89" length="124.58" width="3.75" shape="3120.27,2054.56 3034.63,2144.62"/>
        <lane id=":28_0_1" index="1" speed="13.89" length="124.58" width="3.75" shape="3117.50,2051.99 3034.63,2144.62"/>
        <lane id=":28_0_2" index="2" speed="13.89" length="124.58" width="3.80" shape="3114.72,2049.41 3031.75,2142.18"/>
        <lane id=":28_0_3" index="3" speed="13.89" length="124.58" width="3.80" shape="3111.94,2046.82 3028.85,2139.73"/>
        <lane id=":28_0_4" index="4" speed="13.89" length="124.58" width="3.80" shape="3109.15,2044.23 3025.95,2137.27"/>
        <lane id=":28_0_5" index="5" speed="13.89" length="124.58" width="3.80" shape="3106.37,2041.64 3023.05,2134.82"/>
    </edge>
    <edge id=":29_0" function="internal">
        <lane id=":29_0_0" index="0" speed="13.89" length="0.35" width="3.75" shape="2966.09,2226.44 2965.76,2226.55"/>
        <lane id=":29_0_1" index="1" speed="13.89" length="0.35" width="3.80" shape="2963.16,2224.06 2962.82,2224.17"/>
        <lane id=":29_0_2" index="2" speed="13.89" length="0.35" width="3.80" shape="2960.21,2221.66 2959.87,2221.78"/>
        <lane id=":29_0_3" index="3" speed="13.89" length="0.35" width="3.80" shape="2957.26,2219.27 2956.92,2219.39"/>
        <lane id=":29_0_4" index="4" speed="13.89" length="0.35" width="3.80" shape="2954.31,2216.87 2953.97,2216.99"/>
    </edge>
    <edge id=":31_0" function="internal">
        <lane id=":31_0_0" index="0" speed="13.89" length="8.16" width="3.75" shape="3169.03,1941.14 3170.40,1939.03 3170.67,1937.14 3170.94,1935.25 3172.32,1933.14"/>
        <lane id=":31_0_1" index="1" speed="13.89" length="8.16" width="3.80" shape="3169.03,1941.14 3175.00,1935.80"/>
        <lane id=":31_0_2" index="2" speed="13.89" length="8.16" width="3.80" shape="3171.71,1943.80 3177.70,1938.48"/>
        <lane id=":31_0_3" index="3" speed="13.89" length="8.16" width="3.80" shape="3174.40,1946.48 3180.39,1941.15"/>
        <lane id=":31_0_4" index="4" speed="13.89" length="8.16" width="3.80" shape="3177.10,1949.16 3183.09,1943.83"/>
        <lane id=":31_0_5" index="5" speed="13.89" length="8.16" width="3.80" shape="3179.79,1951.84 3185.79,1946.51"/>
    </edge>
    <edge id=":5_0" function="internal">
        <lane id=":5_0_0" index="0" speed="13.89" length="118.34" width="3.75" shape="1086.85,6336.26 1061.17,6451.71"/>
        <lane id=":5_0_1" index="1" speed="13.89" length="118.34" width="3.75" shape="1083.24,6335.25 1057.53,6450.83"/>
    </edge>
    <edge id=":5_2" function="internal">
        <lane id=":5_2_0" index="0" speed="13.89" length="118.82" width="3.75" shape="1083.24,6335.25 1049.66,6448.94"/>
        <lane id=":5_2_1" index="1" speed="13.89" length="118.82" width="3.75" shape="1079.63,6334.24 1046.01,6448.06"/>
        <lane id=":5_2_2" index="2" speed="13.89" length="118.82" width="3.75" shape="1076.01,6333.22 1042.36,6447.18"/>
        <lane id=":5_2_3" index="3" speed="13.89" length="118.82" width="3.75" shape="1072.40,6332.21 1038.71,6446.30"/>
        <lane id=":5_2_4" index="4" speed="13.89" length="118.82" width="3.75" shape="1068.79,6331.20 1035.07,6445.42"/>
    </edge>
    <edge id=":gneJ12_0" function="internal">
        <lane id=":gneJ12_0_0" index="0" speed="13.89" length="2.36" width="3.75" shape="1256.88,5594.09 1256.95,5593.97 1256.99,5593.89 1257.02,5593.80 1257.06,5593.66"/>
        <lane id=":gneJ12_0_1" index="1" speed="13.89" length="2.36" width="3.75" shape="1260.11,5596.00 1260.32,5595.63 1260.45,5595.38 1260.55,5595.11 1260.67,5594.70"/>
        <lane id=":gneJ12_0_2" index="2" speed="13.89" length="2.36" width="3.75" shape="1263.34,5597.90 1263.69,5597.29 1263.91,5596.86 1264.07,5596.41 1264.27,5595.75"/>
        <lane id=":gneJ12_0_3" index="3" speed="13.89" length="2.36" width="3.75" shape="1266.57,5599.80 1267.06,5598.95 1267.36,5598.35 1267.59,5597.72 1267.87,5596.79"/>
        <lane id=":gneJ12_0_4" index="4" speed="13.89" length="2.36" width="3.75" shape="1269.80,5601.70 1270.43,5600.61 1270.82,5599.84 1271.12,5599.03 1271.47,5597.83"/>
    </edge>
    <edge id=":gneJ13_0" function="internal">
        <lane id=":gneJ13_0_0" index="0" speed="13.89" length="1.34" width="3.75" shape="1255.09,5600.14 1253.57,5599.71"/>
        <lane id=":gneJ13_0_1" index="1" speed="13.89" length="1.34" width="3.75" shape="1258.70,5601.18 1257.29,5600.78"/>
        <lane id=":gneJ13_0_2" index="2" speed="13.89" length="1.34" width="3.75" shape="1262.30,5602.22 1261.02,5601.85"/>
        <lane id=":gneJ13_0_3" index="3" speed="13.89" length="1.34" width="3.75" shape="1265.90,5603.25 1264.74,5602.92"/>
        <lane id=":gneJ13_0_4" index="4" speed="13.89" length="1.34" width="3.75" shape="1269.51,5604.29 1268.46,5603.99"/>
    </edge>
    <edge id=":gneJ14_0" function="internal">
        <lane id=":gneJ14_0_0" index="0" speed="13.89" length="70.22" width="3.75" shape="1322.32,5514.28 1299.68,5594.43"/>
        <lane id=":gneJ14_0_1" index="1" speed="13.89" length="70.22" width="3.75" shape="1318.74,5513.18 1296.08,5593.40"/>
        <lane id=":gneJ14_0_2" index="2" speed="13.89" length="70.22" width="3.75" shape="1315.16,5512.07 1292.47,5592.36"/>
        <lane id=":gneJ14_0_3" index="3" speed="13.89" length="70.22" width="3.75" shape="1311.57,5510.97 1288.87,5591.32"/>
        <lane id=":gneJ14_0_4" index="4" speed="13.89" length="70.22" width="3.75" shape="1296.29,5547.85 1285.27,5590.29"/>
        <lane id=":gneJ14_0_5" index="5" speed="13.89" length="70.22" width="3.75" shape="1296.29,5547.85 1281.66,5589.25"/>
    </edge>
    <edge id=":gneJ15_0" function="internal">
        <lane id=":gneJ15_0_0" index="0" speed="13.89" length="8.06" width="3.75" shape="1322.40,5514.03 1322.41,5514.00"/>
        <lane id=":gneJ15_0_1" index="1" speed="13.89" length="8.06" width="3.75" shape="1318.82,5512.91 1318.81,5512.95"/>
        <lane id=":gneJ15_0_2" index="2" speed="13.89" length="8.06" width="3.75" shape="1315.25,5511.79 1315.21,5511.91"/>
        <lane id=":gneJ15_0_3" index="3" speed="13.89" length="8.06" width="3.75" shape="1311.67,5510.66 1311.60,5510.86"/>
        <lane id=":gneJ15_0_4" index="4" speed="13.89" length="8.06" width="3.75" shape="1308.09,5509.54 1296.35,5547.66"/>
    </edge>
    <edge id=":gneJ22_0" function="internal">
        <lane id=":gneJ22_0_0" index="0" speed="13.89" length="17.11" width="3.75" shape="4114.92,1261.46 4099.86,1268.44"/>
        <lane id=":gneJ22_0_1" index="1" speed="13.89" length="17.11" width="3.75" shape="4116.66,1264.78 4101.37,1271.88"/>
        <lane id=":gneJ22_0_2" index="2" speed="13.89" length="17.11" width="3.75" shape="4118.40,1268.10 4102.88,1275.31"/>
        <lane id=":gneJ22_0_3" index="3" speed="13.89" length="17.11" width="3.75" shape="4120.14,1271.42 4104.39,1278.74"/>
        <lane id=":gneJ22_0_4" index="4" speed="13.89" length="17.11" width="3.75" shape="4121.88,1274.74 4105.90,1282.18"/>
    </edge>
    <edge id=":gneJ26_0" function="internal">
        <lane id=":gneJ26_0_0" index="0" speed="13.89" length="0.27" width="3.50" shape="3530.53,1605.75 3530.77,1605.55"/>
        <lane id=":gneJ26_0_1" index="1" speed="13.89" length="0.27" width="3.50" shape="3532.80,1608.41 3532.98,1608.26"/>
    </edge>
    <edge id=":gneJ27_0" function="internal">
        <lane id=":gneJ27_0_0" index="0" speed="13.89" length="0.24" width="3.50" shape="1833.97,4165.42 1834.09,4165.14"/>
        <lane id=":gneJ27_0_1" index="1" speed="13.89" length="0.24" width="3.50" shape="1837.24,4166.66 1837.31,4166.51"/>
    </edge>
    <edge id=":gneJ29_0" function="internal">
        <lane id=":gneJ29_0_0" index="0" speed="13.89" length="0.43" width="3.75" shape="1849.43,4170.96 1849.55,4170.73"/>
        <lane id=":gneJ29_0_1" index="1" speed="13.89" length="0.43" width="3.75" shape="1852.74,4172.72 1852.90,4172.42"/>
        <lane id=":gneJ29_0_2" index="2" speed="13.89" length="0.43" width="3.75" shape="1856.05,4174.49 1856.25,4174.11"/>
        <lane id=":gneJ29_0_3" index="3" speed="13.89" length="0.43" width="3.75" shape="1859.36,4176.25 1859.59,4175.80"/>
        <lane id=":gneJ29_0_4" index="4" speed="13.89" length="0.43" width="3.75" shape="1862.67,4178.01 1862.94,4177.49"/>
    </edge>
    <edge id=":gneJ30_0" function="internal">
        <lane id=":gneJ30_0_0" index="0" speed="13.89" length="269.31" width="3.50" shape="1721.60,4416.96 1744.02,4368.58 1780.42,4287.55 1814.96,4209.80 1831.77,4171.22"/>
    </edge>
    <edge id=":gneJ30_1" function="internal">
        <lane id=":gneJ30_1_0" index="0" speed="13.89" length="269.06" width="3.50" shape="1725.00,4418.55 1747.37,4370.19 1783.67,4289.21 1818.10,4211.50 1834.86,4172.95"/>
    </edge>
    <edge id=":gneJ30_2" function="internal">
        <lane id=":gneJ30_2_0" index="0" speed="13.89" length="267.73" width="3.75" shape="1725.00,4418.55 1845.28,4178.76"/>
        <lane id=":gneJ30_2_1" index="1" speed="13.89" length="267.73" width="3.75" shape="1728.40,4420.13 1848.55,4180.58"/>
        <lane id=":gneJ30_2_2" index="2" speed="13.89" length="267.73" width="3.75" shape="1731.80,4421.72 1851.83,4182.41"/>
        <lane id=":gneJ30_2_3" index="3" speed="13.89" length="267.73" width="3.75" shape="1735.20,4423.31 1855.11,4184.24"/>
        <lane id=":gneJ30_2_4" index="4" speed="13.89" length="267.73" width="3.75" shape="1738.62,4424.90 1858.38,4186.06"/>
    </edge>
    <edge id=":gneJ31_0" function="internal">
        <lane id=":gneJ31_0_0" index="0" speed="13.89" length="0.29" width="3.50" shape="1950.33,4088.84 1950.20,4089.07"/>
        <lane id=":gneJ31_0_1" index="1" speed="13.89" length="0.29" width="3.50" shape="1947.29,4087.11 1947.14,4087.38"/>
    </edge>
    <edge id=":gneJ32_0" function="internal">
        <lane id=":gneJ32_0_0" index="0" speed="13.89" length="0.10" width="3.75" shape="1937.77,4083.80 1937.73,4083.89"/>
        <lane id=":gneJ32_0_1" index="1" speed="13.89" length="0.10" width="3.75" shape="1934.42,4082.11 1934.38,4082.19"/>
        <lane id=":gneJ32_0_2" index="2" speed="13.89" length="0.10" width="3.75" shape="1931.08,4080.42 1931.03,4080.50"/>
        <lane id=":gneJ32_0_3" index="3" speed="13.89" length="0.10" width="3.75" shape="1927.73,4078.73 1927.69,4078.81"/>
        <lane id=":gneJ32_0_4" index="4" speed="13.89" length="0.10" width="3.75" shape="1924.38,4077.03 1924.34,4077.12"/>
    </edge>
    <edge id=":gneJ33_0" function="internal">
        <lane id=":gneJ33_0_0" index="0" speed="13.89" length="462.21" width="3.75" shape="1949.72,4089.95 1733.95,4498.61"/>
        <lane id=":gneJ33_0_1" index="1" speed="13.89" length="462.21" width="3.75" shape="1946.60,4088.37 1730.61,4496.90"/>
        <lane id=":gneJ33_0_2" index="2" speed="13.89" length="462.21" width="3.75" shape="1946.60,4088.37 1727.28,4495.19"/>
        <lane id=":gneJ33_0_3" index="3" speed="13.89" length="462.21" width="3.75" shape="1946.60,4088.37 1723.94,4493.47"/>
        <lane id=":gneJ33_0_4" index="4" speed="13.89" length="462.21" width="3.75" shape="1946.60,4088.37 1720.61,4491.76"/>
    </edge>
    <edge id=":gneJ33_5" function="internal">
        <lane id=":gneJ33_5_0" index="0" speed="13.89" length="461.78" width="3.75" shape="1937.66,4084.02 1730.61,4496.90"/>
        <lane id=":gneJ33_5_1" index="1" speed="13.89" length="461.78" width="3.75" shape="1934.30,4082.35 1727.28,4495.19"/>
        <lane id=":gneJ33_5_2" index="2" speed="13.89" length="461.78" width="3.75" shape="1930.94,4080.68 1723.94,4493.47"/>
        <lane id=":gneJ33_5_3" index="3" speed="13.89" length="461.78" width="3.75" shape="1927.58,4079.02 1720.61,4491.76"/>
        <lane id=":gneJ33_5_4" index="4" speed="13.89" length="461.78" width="3.80" shape="1924.23,4077.35 1717.25,4490.03"/>
    </edge>
    <edge id=":gneJ34_0" function="internal">
        <lane id=":gneJ34_0_0" index="0" speed="13.89" length="0.81" width="3.50" shape="2226.74,3323.26 2226.93,3322.96 2227.07,3322.75 2227.23,3322.56 2227.49,3322.30"/>
        <lane id=":gneJ34_0_1" index="1" speed="13.89" length="0.81" width="3.50" shape="2229.74,3325.07 2229.80,3324.97 2229.85,3324.90 2229.90,3324.84 2229.99,3324.75"/>
    </edge>
    <edge id=":gneJ35_0" function="internal">
        <lane id=":gneJ35_0_0" index="0" speed="13.89" length="468.78" width="3.75" shape="2377.46,3088.94 2604.90,2678.86"/>
        <lane id=":gneJ35_0_1" index="1" speed="13.89" length="468.78" width="3.75" shape="2380.60,3090.51 2608.16,2680.71"/>
        <lane id=":gneJ35_0_2" index="2" speed="13.89" length="468.78" width="3.75" shape="2380.60,3090.51 2611.42,2682.56"/>
        <lane id=":gneJ35_0_3" index="3" speed="13.89" length="468.78" width="3.75" shape="2380.60,3090.51 2614.69,2684.41"/>
        <lane id=":gneJ35_0_4" index="4" speed="13.89" length="468.78" width="3.75" shape="2380.60,3090.51 2617.95,2686.26"/>
    </edge>
    <edge id=":gneJ35_5" function="internal">
        <lane id=":gneJ35_5_0" index="0" speed="13.89" length="374.85" width="3.75" shape="2393.03,3096.25 2608.16,2680.71"/>
        <lane id=":gneJ35_5_1" index="1" speed="13.89" length="374.85" width="3.75" shape="2396.37,3097.96 2611.42,2682.56"/>
        <lane id=":gneJ35_5_2" index="2" speed="13.89" length="374.85" width="3.75" shape="2399.71,3099.67 2614.69,2684.41"/>
        <lane id=":gneJ35_5_3" index="3" speed="13.89" length="374.85" width="3.75" shape="2508.75,2894.99 2617.95,2686.26"/>
        <lane id=":gneJ35_5_4" index="4" speed="13.89" length="374.85" width="3.75" shape="2512.09,2896.69 2621.21,2688.12"/>
    </edge>
    <edge id=":gneJ36_0" function="internal">
        <lane id=":gneJ36_0_0" index="0" speed="13.89" length="92.86" width="3.75" shape="2392.88,3096.54 2392.92,3096.46"/>
        <lane id=":gneJ36_0_1" index="1" speed="13.89" length="92.86" width="3.75" shape="2396.23,3098.24 2396.28,3098.13"/>
        <lane id=":gneJ36_0_2" index="2" speed="13.89" length="92.86" width="3.75" shape="2399.57,3099.93 2399.64,3099.79"/>
        <lane id=":gneJ36_0_3" index="3" speed="13.89" length="92.86" width="3.75" shape="2402.92,3101.63 2508.66,2895.16"/>
        <lane id=":gneJ36_0_4" index="4" speed="13.89" length="92.86" width="3.75" shape="2406.26,3103.32 2512.00,2896.87"/>
    </edge>
    <edge id=":gneJ38_0" function="internal">
        <lane id=":gneJ38_0_0" index="0" speed="13.89" length="0.30" width="3.50" shape="2373.64,3095.57 2373.79,3095.32"/>
        <lane id=":gneJ38_0_1" index="1" speed="13.89" length="0.30" width="3.50" shape="2376.67,3097.33 2376.82,3097.06"/>
    </edge>
    <edge id=":gneJ40_0" function="internal">
        <lane id=":gneJ40_0_0" index="0" speed="13.89" length="27.72" width="3.50" shape="2246.38,3303.04 2251.55,3298.17 2256.49,3293.76 2261.05,3289.07 2265.10,3283.34"/>
        <lane id=":gneJ40_0_1" index="1" speed="13.89" length="27.72" width="3.50" shape="2248.88,3305.49 2254.13,3300.51 2259.25,3295.86 2263.99,3290.93 2268.13,3285.09"/>
    </edge>
    <edge id=":gneJ40_2" function="internal">
        <lane id=":gneJ40_2_0" index="0" speed="13.89" length="27.67" width="3.50" shape="2252.02,3307.79 2265.10,3283.34"/>
        <lane id=":gneJ40_2_1" index="1" speed="13.89" length="27.67" width="3.50" shape="2255.11,3309.44 2268.13,3285.09"/>
    </edge>
    <edge id=":gneJ42_0" function="internal">
        <lane id=":gneJ42_0_0" index="0" speed="13.89" length="0.71" width="3.75" shape="2818.78,2346.50 2819.55,2345.45"/>
        <lane id=":gneJ42_0_1" index="1" speed="13.89" length="0.71" width="3.75" shape="2821.87,2348.63 2822.50,2347.77"/>
        <lane id=":gneJ42_0_2" index="2" speed="13.89" length="0.71" width="3.75" shape="2824.95,2350.76 2825.45,2350.09"/>
        <lane id=":gneJ42_0_3" index="3" speed="13.89" length="0.71" width="3.75" shape="2828.04,2352.89 2828.39,2352.41"/>
        <lane id=":gneJ42_0_4" index="4" speed="13.89" length="0.71" width="3.75" shape="2831.13,2355.02 2831.34,2354.73"/>
        <lane id=":gneJ42_0_5" index="5" speed="13.89" length="0.71" width="3.75" shape="2834.22,2357.15 2834.29,2357.05"/>
    </edge>
    <edge id=":gneJ44_0" function="internal">
        <lane id=":gneJ44_0_0" index="0" speed="13.89" length="175.13" width="3.75" shape="2823.97,2345.91 2930.96,2206.93"/>
        <lane id=":gneJ44_0_1" index="1" speed="13.89" length="175.13" width="3.80" shape="2826.96,2348.17 2933.89,2209.31"/>
        <lane id=":gneJ44_0_2" index="2" speed="13.89" length="175.13" width="3.80" shape="2829.96,2350.42 2936.85,2211.69"/>
        <lane id=":gneJ44_0_3" index="3" speed="13.89" length="175.13" width="3.80" shape="2832.95,2352.68 2939.81,2214.08"/>
        <lane id=":gneJ44_0_4" index="4" speed="13.89" length="175.13" width="3.80" shape="2835.95,2354.94 2942.76,2216.47"/>
    </edge>
    <edge id=":gneJ45_0" function="internal">
        <lane id=":gneJ45_0_0" index="0" speed="13.89" length="0.30" width="3.75" shape="2779.53,2479.79 2779.35,2480.05"/>
        <lane id=":gneJ45_0_1" index="1" speed="13.89" length="0.30" width="3.75" shape="2776.42,2477.70 2776.25,2477.95"/>
        <lane id=":gneJ45_0_2" index="2" speed="13.89" length="0.30" width="3.75" shape="2773.30,2475.61 2773.14,2475.85"/>
        <lane id=":gneJ45_0_3" index="3" speed="13.89" length="0.30" width="3.75" shape="2770.19,2473.51 2770.03,2473.76"/>
        <lane id=":gneJ45_0_4" index="4" speed="13.89" length="0.30" width="3.75" shape="2767.08,2471.42 2766.92,2471.66"/>
    </edge>
    <edge id=":gneJ46_0" function="internal">
        <lane id=":gneJ46_0_0" index="0" speed="13.89" length="2.97" width="3.75" shape="2823.58,2414.48 2821.91,2416.73"/>
        <lane id=":gneJ46_0_1" index="1" speed="13.89" length="2.97" width="3.75" shape="2820.49,2412.30 2818.79,2414.64"/>
        <lane id=":gneJ46_0_2" index="2" speed="13.89" length="2.97" width="3.75" shape="2817.39,2410.11 2815.68,2412.54"/>
        <lane id=":gneJ46_0_3" index="3" speed="13.89" length="2.97" width="3.75" shape="2814.28,2407.92 2812.57,2410.45"/>
        <lane id=":gneJ46_0_4" index="4" speed="13.89" length="2.97" width="3.75" shape="2811.18,2405.73 2809.46,2408.36"/>
    </edge>
    <edge id=":gneJ47_0" function="internal">
        <lane id=":gneJ47_0_0" index="0" speed="13.89" length="72.34" width="3.50" shape="3717.73,1458.60 3771.40,1410.33"/>
        <lane id=":gneJ47_0_1" index="1" speed="13.89" length="72.34" width="3.50" shape="3719.88,1461.36 3773.78,1412.90"/>
    </edge>
    <edge id=":gneJ47_2" function="internal">
        <lane id=":gneJ47_2_0" index="0" speed="13.89" length="71.81" width="3.50" shape="3719.88,1461.36 3777.99,1419.17"/>
    </edge>
    <edge id=":gneJ47_3" function="internal">
        <lane id=":gneJ47_3_0" index="0" speed="13.89" length="71.59" width="3.50" shape="3719.88,1461.36 3779.80,1422.17"/>
    </edge>
    <edge id=":gneJ51_0" function="internal">