<routes>
    <vType id="xiaokeche" vClass = "taxi" accei = "0.4" decel = "4.5"
     length = "4" callFollowMode="carFollowing-W99" departSpeed = "max" maxSpeed="20" 
    actionStepLength="1"  laneChangeModel="SL2015" cc1="1.1"/>

    <vType id="dakeche" vClass = "truck" accei = "0.4" decel = "4.5"  length = "11"
      callFollowMode="carFollowing-W99" departSpeed = "max" maxSpeed="20" 
    actionStepLength="1"  laneChangeModel="SL2015" lcStrategic="1000" cc1="1.1"/>

   <vType id="xiaoxinghuoche" vClass = "truck" accei = "0.4" decel = "4.5"   length = "6"
      callFollowMode="carFollowing-W99" departSpeed = "max" maxSpeed="20" 
    actionStepLength="1"  laneChangeModel="SL2015" lcStrategic="1000" cc1="1.1"/>

    <vType id="zhongxinghuoche" vClass = "truck" accei = "0.4" decel = "4.5"
     length = "9.6" callFollowMode="carFollowing-W99" departSpeed = "max" maxSpeed="20" 
    actionStepLength="1"  laneChangeModel="SL2015" cc1="1.1"/>

    <vType id="daxinghuoche" vClass = "truck" accei = "0.4" decel = "4.5"  length = "13"
     callFollowMode="carFollowing-W99" departSpeed = "max" maxSpeed="20" 
    actionStepLength="1"  laneChangeModel="SL2015" lcStrategic="1000" cc1="1.1"/>

   <vType id="tedaxinghuoche" vClass = "trailer" accei = "0.4" decel = "4.5"   length = "16"
     callFollowMode="carFollowing-W99" departSpeed = "max" maxSpeed="20" 
    actionStepLength="1"  laneChangeModel="SL2015" lcStrategic="1000" cc1="1.1"/>

    <flow id="xiaokeche" color="0,1,0" begin="0" end="7200" period="1" type="xiaokeche" departLane ='0' >
      <route edges=" H "/> 
    </flow>

    <flow id="dakeche" color="1,1,0" begin="0" end="7200" vehsPerHour="4000" type="dakeche" departLane ='4' >
      <route edges=" H "/> 
    </flow>

    <flow id="xiaoxinghuoche" color="0,0,1" begin="0" end="7200" vehsPerHour="4000" type="xiaoxinghuoche" departLane ='3' >
      <route edges=" H "/> 
    </flow>

    <flow id="zhongxinghuoche" color="1,1,1" begin="0" end="7200" period="1" type="zhongxinghuoche" departLane ='2' >
      <route edges=" H "/> 
    </flow>

    <flow id="daxinghuoche" color="1,0,1" begin="0" end="7200" vehsPerHour="4000" type="daxinghuoche" departLane ='1' >
      <route edges=" H "/> 
    </flow>

    <flow id="tedaxinghuoche" color="1,0,0" begin="0" end="7200" vehsPerHour="4000" type="tedaxinghuoche" departLane ='0' >
      <route edges=" H "/> 
    </flow>

</routes> 