<?xml version="1.0" encoding="UTF-8"?>

<!-- generated on 2021-11-03 10:03:56 by Eclipse SUMO netedit Version 1.10.0
<configuration xmlns:xsi="http://www.w3.org/2001/XMLSchema-instance" xsi:noNamespaceSchemaLocation="http://sumo.dlr.de/xsd/netconvertConfiguration.xsd">

    <input>
        <sumo-net-file value="E:\sumo\bin\code\Vissim_sumo.net%20(1).xml"/>
    </input>

    <output>
        <output-file value="E:\sumo\bin\code\Vissim_sumo.net%20(1).xml"/>
    </output>

    <processing>
        <geometry.min-radius.fix.railways value="false"/>
        <geometry.max-grade.fix value="false"/>
        <offset.disable-normalization value="true"/>
        <lefthand value="false"/>
    </processing>

    <junctions>
        <no-internal-links value="true"/>
        <no-turnarounds value="true"/>
        <junctions.corner-detail value="5"/>
        <junctions.limit-turn-speed value="5.5"/>
        <rectangular-lane-cut value="false"/>
    </junctions>

    <pedestrian>
        <walkingareas value="false"/>
    </pedestrian>

    <report>
        <aggregate-warnings value="5"/>
    </report>

</configuration>
-->

<net version="1.9" junctionCornerDetail="5" limitTurnSpeed="5.50" xmlns:xsi="http://www.w3.org/2001/XMLSchema-instance" xsi:noNamespaceSchemaLocation="http://sumo.dlr.de/xsd/net_file.xsd">

    <location netOffset="-490306.77,-2490657.31" convBoundary="0.00,1453.12,42318.90,46969.87" origBoundary="490306.77,2490657.31,532625.67,2537627.19" projParameter="!"/>

    <edge id="1" from="1-SourceNode" to="1-DestinationNode" priority="-1" type="6" spreadType="center" shape="1036.99,40599.79 1041.96,40600.26 1046.94,40600.70 1051.92,40601.13 1056.91,40601.54 1061.89,40601.93 1066.88,40602.30 1071.87,40602.66 1076.86,40602.99 1081.85,40603.31 1086.84,40603.60 1091.83,40603.88 1096.82,40604.14 1101.82,40604.38 1106.81,40604.60 1111.81,40604.80 1116.80,40604.98 1121.80,40605.15 1126.80,40605.29 1131.80,40605.41 1136.80,40605.52 1141.80,40605.61 1146.80,40605.68 1151.80,40605.73 1156.80,40605.76 1161.80,40605.77 1166.80,40605.76 1171.80,40605.73 1176.79,40605.69 1181.79,40605.62 1186.79,40605.54 1191.79,40605.44 1196.79,40605.32 1201.79,40605.18 1206.79,40605.01 1211.78,40604.82 1216.78,40604.60 1221.77,40604.35 1226.76,40604.07 1231.75,40603.75 1236.74,40603.38 1241.72,40602.98 1246.70,40602.53 1251.68,40602.03 1256.65,40601.48 1261.61,40600.88 1266.57,40600.22 1271.52,40599.50 1276.46,40598.73 1281.38,40597.88 1286.30,40596.98 1291.21,40596.02 1296.10,40594.99 1300.98,40593.91 1305.85,40592.76 1310.70,40591.55 1315.54,40590.28 1320.36,40588.95 1325.16,40587.56 1329.95,40586.11 1334.71,40584.61 1339.46,40583.04 1344.19,40581.41 1348.89,40579.72 1353.58,40577.98 1358.24,40576.17 1362.88,40574.31 1367.50,40572.39 1372.09,40570.42 1376.66,40568.38 1381.20,40566.29 1385.72,40564.14 1390.21,40561.94 1394.67,40559.68 1399.10,40557.36 1403.50,40554.99 1407.87,40552.57 1412.21,40550.09 1416.52,40547.55 1420.81,40544.97 1425.06,40542.35 1429.29,40539.68 1433.50,40536.98 1437.68,40534.24 1441.84,40531.46 1445.98,40528.66 1450.10,40525.83 1454.21,40522.98 1458.30,40520.10 1462.38,40517.21 1466.45,40514.31 1470.51,40511.39 1474.56,40508.46 1478.61,40505.53 1482.66,40502.59 1486.70,40499.65 1490.76,40496.72 1494.82,40493.81 1498.91,40490.93 1503.03,40488.10 1507.18,40485.31 1511.38,40482.59 1515.62,40479.95 1519.92,40477.41 1524.29,40474.96 1528.71,40472.64 1533.20,40470.44 1537.77,40468.40 1542.40,40466.51 1547.10,40464.81 1551.86,40463.29 1556.69,40461.98 1561.57,40460.90 1566.50,40460.06 1571.46,40459.47 1576.45,40459.12 1581.45,40459.03 1586.44,40459.18 1591.43,40459.59 1596.38,40460.24 1601.30,40461.14 1606.17,40462.28 1610.97,40463.67 1615.70,40465.29 1620.34,40467.15 1624.88,40469.24 1629.32,40471.55 1633.63,40474.08 1637.81,40476.83 1641.84,40479.77 1645.73,40482.92 1649.45,40486.26 1653.00,40489.78 1656.37,40493.47 1659.56,40497.33 1662.54,40501.34 1665.32,40505.49 1667.89,40509.78 1670.24,40514.19 1672.37,40518.71 1674.27,40523.34 1675.94,40528.05 1677.37,40532.84 1678.56,40537.70 1679.50,40542.61 1680.20,40547.56 1680.65,40552.54 1680.85,40557.53 1680.80,40562.53 1680.50,40567.52 1679.95,40572.49 1679.15,40577.43 1678.11,40582.32 1676.82,40587.15 1675.30,40591.91 1673.54,40596.59 1671.54,40601.17 1669.32,40605.65 1666.88,40610.02 1664.24,40614.26 1661.41,40618.38 1658.42,40622.39 1655.30,40626.30 1652.06,40630.10 1648.72,40633.83 1645.31,40637.48 1641.84,40641.08 1638.32,40644.63 1634.77,40648.16 1631.21,40651.67 1627.66,40655.18 1624.11,40658.70 1620.57,40662.24 1617.07,40665.81 1613.59,40669.40 1610.15,40673.03 1606.76,40676.70 1603.43,40680.43 1600.15,40684.21 1596.95,40688.05 1593.84,40691.96 1590.81,40695.94 1587.89,40700.00 1585.06,40704.12 1582.34,40708.32 1579.73,40712.58 1577.22,40716.91 1574.83,40721.29 1572.54,40725.74 1570.36,40730.24 1568.30,40734.80 1566.35,40739.40 1564.52,40744.05 1562.81,40748.75 1561.21,40753.49 1559.73,40758.27 1558.36,40763.08 1557.10,40767.91 1555.92,40772.77 1554.82,40777.65 1553.79,40782.54 1552.80,40787.44 1551.86,40792.35 1550.95,40797.27 1550.06,40802.19 1549.16,40807.11 1548.26,40812.03 1547.36,40816.94 1546.44,40821.86 1545.51,40826.77 1544.58,40831.69 1543.64,40836.60 1542.69,40841.51 1541.73,40846.41 1540.77,40851.32 1539.79,40856.22 1538.81,40861.13 1537.82,40866.03 1536.82,40870.93 1535.82,40875.82 1534.80,40880.72 1533.78,40885.61 1532.75,40890.51 1531.71,40895.40 1530.66,40900.29 1529.61,40905.17 1528.56,40910.06 1527.51,40914.95 1526.46,40919.84 1525.42,40924.73 1524.39,40929.62 1523.36,40934.51 1522.33,40939.41 1521.31,40944.30 1520.29,40949.20 1519.28,40954.09 1518.27,40958.99 1517.27,40963.89 1516.27,40968.79 1515.27,40973.69 1514.28,40978.59 1513.29,40983.49 1512.31,40988.39 1511.33,40993.30 1510.36,40998.20 1509.39,41003.11 1508.43,41008.01 1507.47,41012.92 1506.52,41017.83 1505.57,41022.74 1504.62,41027.65 1503.68,41032.56 1502.74,41037.47 1501.81,41042.38 1500.88,41047.29 1499.96,41052.21 1499.04,41057.12 1498.12,41062.04 1497.21,41066.96 1496.31,41071.87 1495.41,41076.79 1494.51,41081.71 1493.62,41086.63 1492.73,41091.55 1491.84,41096.47 1490.97,41101.39 1490.09,41106.32 1489.22,41111.24 1488.36,41116.16 1487.50,41121.09 1486.64,41126.02 1485.79,41130.94 1484.94,41135.87 1484.10,41140.80 1483.26,41145.73 1482.42,41150.66 1481.59,41155.59 1480.77,41160.52 1479.95,41165.45 1479.13,41170.39 1478.32,41175.32 1477.51,41180.25 1476.71,41185.19 1475.91,41190.13 1475.12,41195.06 1474.33,41200.00 1473.55,41204.94 1472.77,41209.88 1471.99,41214.82 1471.22,41219.76 1470.45,41224.70 1469.69,41229.64 1468.93,41234.58 1468.18,41239.52 1467.43,41244.47 1466.69,41249.41 1465.95,41254.36 1465.21,41259.30 1464.48,41264.25 1463.76,41269.20 1463.04,41274.14 1462.32,41279.09 1461.61,41284.04 1460.90,41288.99 1460.20,41293.94 1459.50,41298.89 1458.80,41303.84 1458.11,41308.79 1457.43,41313.75 1456.75,41318.70 1456.07,41323.66 1455.40,41328.61 1454.73,41333.56 1454.07,41338.52 1453.41,41343.48 1452.75,41348.43 1452.11,41353.39 1451.46,41358.35 1450.82,41363.31 1450.18,41368.27 1449.55,41373.23 1448.93,41378.19 1448.30,41383.15 1447.69,41388.11 1447.07,41393.07 1446.46,41398.04 1445.86,41403.00 1445.26,41407.96 1444.67,41412.93 1444.07,41417.89 1443.49,41422.86 1442.91,41427.83 1442.33,41432.79 1441.76,41437.76">
        <lane id="1_0" index="0" speed="13.89" length="1664.96" width="3.50" shape="1037.15,40598.05 1042.12,40598.52 1047.09,40598.96 1052.07,40599.39 1057.05,40599.80 1062.02,40600.19 1067.01,40600.55 1071.99,40600.91 1076.97,40601.24 1081.96,40601.56 1086.94,40601.85 1091.92,40602.13 1096.91,40602.39 1101.90,40602.63 1106.88,40602.85 1111.88,40603.05 1116.86,40603.23 1121.85,40603.40 1126.85,40603.54 1131.84,40603.66 1136.83,40603.77 1141.83,40603.86 1146.82,40603.93 1151.81,40603.98 1156.81,40604.01 1161.80,40604.02 1166.79,40604.01 1171.79,40603.98 1176.77,40603.94 1181.76,40603.87 1186.76,40603.79 1191.75,40603.69 1196.74,40603.57 1201.74,40603.43 1206.73,40603.26 1211.71,40603.07 1216.70,40602.85 1221.68,40602.60 1226.65,40602.32 1231.63,40602.00 1236.61,40601.64 1241.57,40601.24 1246.53,40600.79 1251.50,40600.29 1256.45,40599.74 1261.39,40599.14 1266.33,40598.49 1271.26,40597.77 1276.18,40597.00 1281.07,40596.16 1285.97,40595.26 1290.86,40594.31 1295.73,40593.28 1300.59,40592.20 1305.44,40591.06 1310.27,40589.85 1315.09,40588.59 1319.88,40587.27 1324.66,40585.88 1329.43,40584.44 1334.17,40582.94 1338.90,40581.38 1343.61,40579.76 1348.29,40578.08 1352.96,40576.34 1357.60,40574.54 1362.22,40572.69 1366.82,40570.78 1371.39,40568.82 1375.94,40566.79 1380.46,40564.70 1384.96,40562.56 1389.43,40560.37 1393.87,40558.12 1398.28,40555.81 1402.66,40553.45 1407.01,40551.04 1411.33,40548.58 1415.62,40546.05 1419.90,40543.48 1424.13,40540.87 1428.35,40538.20 1432.55,40535.51 1436.71,40532.78 1440.86,40530.01 1444.99,40527.21 1449.11,40524.39 1453.21,40521.55 1457.29,40518.67 1461.37,40515.78 1465.43,40512.89 1469.49,40509.97 1473.53,40507.04 1477.58,40504.11 1481.63,40501.17 1485.67,40498.23 1489.74,40495.30 1493.81,40492.38 1497.91,40489.49 1502.05,40486.65 1506.22,40483.85 1510.44,40481.11 1514.71,40478.45 1519.05,40475.89 1523.46,40473.42 1527.92,40471.08 1532.46,40468.85 1537.08,40466.79 1541.77,40464.88 1546.54,40463.15 1551.36,40461.61 1556.27,40460.28 1561.23,40459.18 1566.25,40458.33 1571.30,40457.73 1576.37,40457.37 1581.46,40457.28 1586.54,40457.43 1591.62,40457.85 1596.65,40458.51 1601.66,40459.43 1606.61,40460.59 1611.50,40462.00 1616.31,40463.65 1621.03,40465.54 1625.65,40467.67 1630.17,40470.02 1634.55,40472.59 1638.81,40475.39 1642.91,40478.38 1646.87,40481.59 1650.65,40484.99 1654.26,40488.57 1657.69,40492.32 1660.94,40496.25 1663.97,40500.33 1666.80,40504.55 1669.41,40508.92 1671.80,40513.41 1673.97,40518.00 1675.91,40522.72 1677.60,40527.51 1679.06,40532.38 1680.27,40537.33 1681.23,40542.32 1681.94,40547.36 1682.40,40552.43 1682.60,40557.50 1682.55,40562.59 1682.24,40567.67 1681.68,40572.73 1680.87,40577.75 1679.81,40582.73 1678.50,40587.64 1676.95,40592.48 1675.16,40597.25 1673.13,40601.91 1670.87,40606.47 1668.39,40610.91 1665.70,40615.22 1662.83,40619.40 1659.81,40623.46 1656.65,40627.41 1653.38,40631.25 1650.01,40635.01 1646.58,40638.68 1643.09,40642.30 1639.56,40645.87 1636.00,40649.40 1632.44,40652.92 1628.89,40656.42 1625.34,40659.94 1621.81,40663.47 1618.32,40667.03 1614.85,40670.61 1611.43,40674.23 1608.06,40677.88 1604.74,40681.59 1601.48,40685.34 1598.31,40689.15 1595.22,40693.03 1592.22,40696.98 1589.32,40701.01 1586.52,40705.09 1583.82,40709.25 1581.23,40713.48 1578.75,40717.77 1576.38,40722.11 1574.11,40726.52 1571.95,40730.98 1569.90,40735.50 1567.97,40740.06 1566.16,40744.67 1564.46,40749.33 1562.88,40754.03 1561.41,40758.77 1560.05,40763.54 1558.80,40768.34 1557.62,40773.17 1556.53,40778.02 1555.50,40782.89 1554.52,40787.78 1553.58,40792.67 1552.67,40797.58 1551.78,40802.50 1550.88,40807.42 1549.98,40812.35 1549.08,40817.26 1548.16,40822.18 1547.23,40827.10 1546.30,40832.02 1545.36,40836.93 1544.41,40841.84 1543.45,40846.75 1542.49,40851.66 1541.51,40856.56 1540.53,40861.47 1539.53,40866.38 1538.53,40871.28 1537.53,40876.17 1536.51,40881.08 1535.49,40885.97 1534.46,40890.87 1533.42,40895.77 1532.37,40900.66 1531.32,40905.54 1530.27,40910.43 1529.22,40915.32 1528.17,40920.21 1527.13,40925.09 1526.10,40929.98 1525.07,40934.87 1524.04,40939.77 1523.02,40944.66 1522.00,40949.56 1520.99,40954.44 1519.98,40959.34 1518.98,40964.24 1517.98,40969.14 1516.98,40974.04 1516.00,40978.94 1515.01,40983.83 1514.03,40988.73 1513.05,40993.64 1512.08,40998.54 1511.11,41003.45 1510.15,41008.35 1509.19,41013.25 1508.24,41018.16 1507.29,41023.07 1506.34,41027.98 1505.40,41032.89 1504.46,41037.80 1503.53,41042.71 1502.60,41047.61 1501.68,41052.53 1500.76,41057.44 1499.84,41062.36 1498.93,41067.28 1498.03,41072.19 1497.13,41077.10 1496.23,41082.02 1495.34,41086.94 1494.45,41091.86 1493.56,41096.78 1492.69,41101.70 1491.81,41106.63 1490.94,41111.54 1490.08,41116.46 1489.22,41121.39 1488.36,41126.32 1487.51,41131.24 1486.66,41136.17 1485.83,41141.09 1484.99,41146.02 1484.15,41150.95 1483.32,41155.88 1482.50,41160.81 1481.68,41165.74 1480.86,41170.68 1480.05,41175.60 1479.24,41180.53 1478.44,41185.47 1477.64,41190.41 1476.85,41195.34 1476.06,41200.27 1475.28,41205.21 1474.50,41210.15 1473.72,41215.09 1472.95,41220.03 1472.18,41224.97 1471.42,41229.91 1470.66,41234.84 1469.91,41239.78 1469.16,41244.73 1468.42,41249.67 1467.68,41254.62 1466.94,41259.56 1466.21,41264.50 1465.49,41269.45 1464.77,41274.39 1464.05,41279.34 1463.34,41284.29 1462.63,41289.24 1461.93,41294.19 1461.23,41299.14 1460.53,41304.08 1459.84,41309.03 1459.16,41313.99 1458.48,41318.94 1457.80,41323.90 1457.13,41328.84 1456.46,41333.79 1455.80,41338.75 1455.14,41343.71 1454.49,41348.66 1453.85,41353.62 1453.20,41358.58 1452.56,41363.53 1451.92,41368.49 1451.29,41373.45 1450.67,41378.41 1450.04,41383.37 1449.43,41388.33 1448.81,41393.29 1448.20,41398.25 1447.60,41403.21 1447.00,41408.17 1446.41,41413.14 1445.81,41418.10 1445.23,41423.06 1444.65,41428.03 1444.07,41432.99 1443.50,41437.96"/>
        <lane id="1_1" index="1" speed="13.89" length="1664.96" width="3.50" shape="1036.83,40601.53 1041.80,40602.00 1046.79,40602.44 1051.77,40602.87 1056.77,40603.28 1061.76,40603.67 1066.75,40604.05 1071.75,40604.41 1076.75,40604.74 1081.74,40605.06 1086.74,40605.35 1091.74,40605.63 1096.73,40605.89 1101.74,40606.13 1106.74,40606.35 1111.74,40606.55 1116.74,40606.73 1121.75,40606.90 1126.75,40607.04 1131.76,40607.16 1136.77,40607.27 1141.77,40607.36 1146.78,40607.43 1151.79,40607.48 1156.79,40607.51 1161.80,40607.52 1166.81,40607.51 1171.81,40607.48 1176.81,40607.44 1181.82,40607.37 1186.82,40607.29 1191.83,40607.19 1196.84,40607.07 1201.84,40606.93 1206.85,40606.76 1211.85,40606.57 1216.86,40606.35 1221.86,40606.10 1226.87,40605.82 1231.87,40605.50 1236.87,40605.12 1241.87,40604.72 1246.87,40604.27 1251.86,40603.77 1256.85,40603.22 1261.83,40602.62 1266.81,40601.95 1271.78,40601.23 1276.74,40600.46 1281.69,40599.60 1286.63,40598.70 1291.56,40597.73 1296.47,40596.70 1301.37,40595.62 1306.26,40594.46 1311.13,40593.25 1315.99,40591.97 1320.84,40590.63 1325.66,40589.24 1330.47,40587.78 1335.25,40586.28 1340.02,40584.70 1344.77,40583.06 1349.49,40581.36 1354.20,40579.62 1358.88,40577.80 1363.54,40575.93 1368.18,40574.00 1372.79,40572.02 1377.38,40569.97 1381.94,40567.88 1386.48,40565.72 1390.99,40563.51 1395.47,40561.24 1399.92,40558.91 1404.34,40556.53 1408.73,40554.10 1413.09,40551.60 1417.42,40549.05 1421.72,40546.46 1425.99,40543.83 1430.23,40541.16 1434.45,40538.45 1438.65,40535.70 1442.82,40532.91 1446.97,40530.11 1451.09,40527.27 1455.21,40524.41 1459.31,40521.53 1463.39,40518.64 1467.47,40515.73 1471.53,40512.81 1475.59,40509.88 1479.64,40506.95 1483.69,40504.01 1487.73,40501.07 1491.78,40498.14 1495.83,40495.24 1499.91,40492.37 1504.01,40489.55 1508.14,40486.77 1512.32,40484.07 1516.53,40481.45 1520.79,40478.93 1525.12,40476.50 1529.50,40474.20 1533.94,40472.03 1538.46,40470.01 1543.03,40468.14 1547.66,40466.47 1552.36,40464.97 1557.11,40463.68 1561.91,40462.62 1566.75,40461.79 1571.62,40461.21 1576.53,40460.87 1581.44,40460.78 1586.34,40460.93 1591.24,40461.33 1596.11,40461.97 1600.94,40462.85 1605.73,40463.97 1610.44,40465.34 1615.09,40466.93 1619.65,40468.76 1624.11,40470.81 1628.47,40473.08 1632.71,40475.57 1636.81,40478.27 1640.77,40481.16 1644.59,40484.25 1648.25,40487.53 1651.74,40490.99 1655.05,40494.62 1658.18,40498.41 1661.11,40502.35 1663.84,40506.43 1666.37,40510.64 1668.68,40514.97 1670.77,40519.42 1672.63,40523.96 1674.28,40528.59 1675.68,40533.30 1676.85,40538.07 1677.77,40542.90 1678.46,40547.76 1678.90,40552.65 1679.10,40557.56 1679.05,40562.47 1678.76,40567.37 1678.22,40572.25 1677.43,40577.11 1676.41,40581.91 1675.14,40586.66 1673.65,40591.34 1671.92,40595.93 1669.95,40600.43 1667.77,40604.83 1665.37,40609.13 1662.78,40613.30 1659.99,40617.36 1657.03,40621.32 1653.95,40625.19 1650.74,40628.95 1647.43,40632.65 1644.04,40636.28 1640.59,40639.86 1637.08,40643.39 1633.54,40646.92 1629.98,40650.42 1626.43,40653.94 1622.88,40657.46 1619.33,40661.01 1615.82,40664.59 1612.33,40668.19 1608.87,40671.83 1605.46,40675.52 1602.12,40679.27 1598.82,40683.08 1595.59,40686.95 1592.46,40690.89 1589.40,40694.90 1586.46,40698.99 1583.60,40703.15 1580.86,40707.39 1578.23,40711.68 1575.69,40716.05 1573.28,40720.47 1570.97,40724.96 1568.77,40729.50 1566.70,40734.10 1564.73,40738.74 1562.88,40743.43 1561.16,40748.17 1559.54,40752.95 1558.05,40757.77 1556.67,40762.62 1555.40,40767.48 1554.22,40772.37 1553.11,40777.28 1552.08,40782.19 1551.08,40787.10 1550.14,40792.03 1549.23,40796.96 1548.34,40801.88 1547.44,40806.80 1546.54,40811.71 1545.64,40816.62 1544.72,40821.54 1543.79,40826.44 1542.86,40831.36 1541.92,40836.27 1540.97,40841.18 1540.01,40846.07 1539.05,40850.98 1538.07,40855.88 1537.09,40860.79 1536.11,40865.68 1535.11,40870.58 1534.11,40875.47 1533.09,40880.36 1532.07,40885.25 1531.04,40890.15 1530.00,40895.03 1528.95,40899.92 1527.90,40904.80 1526.85,40909.69 1525.80,40914.58 1524.75,40919.47 1523.71,40924.37 1522.68,40929.26 1521.65,40934.15 1520.62,40939.05 1519.60,40943.94 1518.58,40948.84 1517.57,40953.74 1516.56,40958.64 1515.56,40963.54 1514.56,40968.44 1513.56,40973.34 1512.56,40978.24 1511.57,40983.15 1510.59,40988.05 1509.61,40992.96 1508.64,40997.86 1507.67,41002.77 1506.71,41007.67 1505.75,41012.59 1504.80,41017.50 1503.85,41022.41 1502.90,41027.32 1501.96,41032.23 1501.02,41037.14 1500.09,41042.05 1499.16,41046.97 1498.24,41051.89 1497.32,41056.80 1496.40,41061.72 1495.49,41066.64 1494.59,41071.55 1493.69,41076.48 1492.79,41081.40 1491.90,41086.32 1491.01,41091.24 1490.12,41096.16 1489.25,41101.08 1488.37,41106.01 1487.50,41110.94 1486.64,41115.86 1485.78,41120.79 1484.92,41125.72 1484.07,41130.64 1483.22,41135.57 1482.37,41140.51 1481.53,41145.44 1480.69,41150.37 1479.86,41155.30 1479.04,41160.23 1478.22,41165.16 1477.40,41170.10 1476.59,41175.04 1475.78,41179.97 1474.98,41184.91 1474.18,41189.85 1473.39,41194.78 1472.60,41199.73 1471.82,41204.67 1471.04,41209.61 1470.26,41214.55 1469.49,41219.49 1468.72,41224.43 1467.96,41229.37 1467.20,41234.32 1466.45,41239.26 1465.70,41244.21 1464.96,41249.15 1464.22,41254.10 1463.48,41259.04 1462.75,41264.00 1462.03,41268.95 1461.31,41273.89 1460.59,41278.84 1459.88,41283.79 1459.17,41288.74 1458.47,41293.69 1457.77,41298.64 1457.07,41303.60 1456.38,41308.55 1455.70,41313.51 1455.02,41318.46 1454.34,41323.42 1453.67,41328.38 1453.00,41333.33 1452.34,41338.29 1451.68,41343.25 1451.01,41348.20 1450.37,41353.16 1449.72,41358.12 1449.08,41363.09 1448.44,41368.05 1447.81,41373.01 1447.19,41377.97 1446.56,41382.93 1445.95,41387.89 1445.33,41392.85 1444.72,41397.83 1444.12,41402.79 1443.52,41407.75 1442.93,41412.72 1442.33,41417.68 1441.75,41422.66 1441.17,41427.63 1440.59,41432.59 1440.02,41437.56"/>
    </edge>
    <edge id="10" from="10-SourceNode" to="10-DestinationNode" priority="-1" type="6" spreadType="center" shape="4157.19,33958.78 4153.66,33956.14 4149.67,33953.13 4145.71,33950.07 4141.80,33946.96 4137.95,33943.77 4134.16,33940.50 4130.46,33937.14 4126.87,33933.66 4123.39,33930.07 4120.06,33926.35 4116.88,33922.49 4113.88,33918.49 4111.08,33914.35 4108.48,33910.07 4106.11,33905.67 4103.96,33901.16 4102.04,33896.54 4100.35,33891.84 4098.90,33887.05 4097.68,33882.20 4096.72,33877.30 4096.00,33872.35 4095.52,33867.37 4095.30,33862.38 4095.33,33857.38 4095.60,33852.39 4096.13,33847.42 4096.90,33842.48 4097.92,33837.58 4099.18,33832.75 4100.68,33827.98 4102.42,33823.29 4104.39,33818.70 4106.59,33814.21 4109.01,33809.83 4111.65,33805.58 4114.49,33801.47 4117.54,33797.51 4120.78,33793.70 4124.21,33790.06 4127.81,33786.60 4131.58,33783.32 4135.52,33780.23 4139.60,33777.34 4143.82,33774.66 4148.17,33772.20 4152.64,33769.95 4157.21,33767.94 4161.88,33766.15 4166.63,33764.60 4171.46,33763.29 4176.34,33762.22 4181.27,33761.39 4186.24,33760.82 4191.23,33760.49 4196.23,33760.41 4201.22,33760.58 4206.20,33761.00 4211.16,33761.67 4216.07,33762.59 4220.94,33763.75 4225.73,33765.16 4230.46,33766.80 4235.09,33768.67 4239.63,33770.78 4244.05,33773.11 4248.35,33775.65 4252.52,33778.41 4256.55,33781.37 4260.42,33784.54 4264.13,33787.89 4267.67,33791.42 4271.03,33795.12 4274.20,33798.99 4277.17,33803.01 4279.93,33807.17 4282.49,33811.47 4284.83,33815.89 4286.94,33820.42 4288.85,33825.04 4290.56,33829.74 4292.09,33834.50 4293.46,33839.31 4294.69,33844.16 4295.78,33849.03 4296.77,33853.93 4297.67,33858.85 4298.49,33863.79 4299.27,33868.72 4300.01,33873.67 4300.73,33878.62 4301.46,33883.56 4302.19,33888.51 4302.94,33893.45 4303.70,33898.40 4304.48,33903.33 4305.28,33908.27 4306.12,33913.20 4306.99,33918.12 4307.90,33923.04 4308.86,33927.95 4309.86,33932.85 4310.91,33937.73 4312.01,33942.61 4313.16,33947.48 4314.36,33952.33 4315.61,33957.17 4316.90,33962.00 4318.25,33966.82 4319.64,33971.62 4321.08,33976.41 4322.57,33981.18 4324.10,33985.94 4325.69,33990.68 4327.32,33995.41 4328.99,34000.12 4330.71,34004.81 4332.47,34009.49 4334.27,34014.16 4336.11,34018.81 4337.98,34023.45 4339.88,34028.07 4341.82,34032.68 4343.77,34037.28 4345.75,34041.87 4347.76,34046.46 4349.78,34051.03 4351.82,34055.59 4353.88,34060.15 4355.96,34064.70 4358.06,34069.23 4360.17,34073.76 4362.31,34078.28 4364.47,34082.80 4366.64,34087.30 4368.83,34091.79 4371.04,34096.28 4373.27,34100.75 4375.52,34105.22 4377.79,34109.68 4380.07,34114.12 4382.38,34118.56 4384.70,34122.99 4387.04,34127.41 4389.40,34131.81 4391.78,34136.21 4394.17,34140.60 4396.59,34144.98 4399.02,34149.35 4401.47,34153.71 4403.93,34158.06 4406.41,34162.40 4408.91,34166.73 4411.42,34171.06 4413.94,34175.38 4416.47,34179.69 4419.01,34183.99 4421.56,34188.29 4424.12,34192.59 4426.69,34196.88 4429.26,34201.17 4431.84,34205.45 4434.42,34209.73 4437.01,34214.01 4439.60,34218.29 4442.20,34222.56 4444.79,34226.84">
        <lane id="10_0" index="0" speed="13.89" length="834.37" width="3.50" shape="4156.14,33960.18 4152.61,33957.54 4148.61,33954.52 4144.63,33951.45 4140.70,33948.32 4136.82,33945.11 4133.00,33941.81 4129.26,33938.42 4125.63,33934.90 4122.11,33931.26 4118.73,33927.49 4115.50,33923.57 4112.45,33919.51 4109.61,33915.30 4106.96,33910.94 4104.55,33906.46 4102.36,33901.87 4100.41,33897.17 4098.69,33892.39 4097.21,33887.52 4095.97,33882.58 4094.99,33877.59 4094.26,33872.56 4093.77,33867.49 4093.55,33862.41 4093.58,33857.33 4093.86,33852.25 4094.39,33847.19 4095.18,33842.17 4096.22,33837.18 4097.50,33832.27 4099.02,33827.41 4100.79,33822.64 4102.80,33817.97 4105.04,33813.40 4107.50,33808.94 4110.19,33804.62 4113.08,33800.44 4116.18,33796.41 4119.48,33792.53 4122.97,33788.83 4126.63,33785.31 4130.46,33781.97 4134.47,33778.83 4138.62,33775.89 4142.92,33773.16 4147.35,33770.66 4151.89,33768.37 4156.54,33766.32 4161.30,33764.50 4166.13,33762.92 4171.04,33761.59 4176.01,33760.50 4181.02,33759.66 4186.08,33759.08 4191.16,33758.74 4196.25,33758.66 4201.32,33758.83 4206.39,33759.26 4211.44,33759.94 4216.43,33760.88 4221.39,33762.06 4226.26,33763.49 4231.07,33765.16 4235.79,33767.06 4240.41,33769.21 4244.90,33771.58 4249.28,33774.17 4253.52,33776.97 4257.62,33779.99 4261.56,33783.21 4265.33,33786.62 4268.94,33790.21 4272.36,33793.98 4275.58,33797.91 4278.60,33802.01 4281.41,33806.24 4284.02,33810.61 4286.40,33815.11 4288.54,33819.72 4290.48,33824.41 4292.22,33829.17 4293.77,33833.99 4295.15,33838.86 4296.39,33843.75 4297.49,33848.67 4298.49,33853.60 4299.39,33858.55 4300.22,33863.51 4301.00,33868.45 4301.74,33873.41 4302.46,33878.37 4303.19,33883.30 4303.92,33888.25 4304.67,33893.19 4305.43,33898.13 4306.21,33903.05 4307.01,33907.98 4307.84,33912.90 4308.71,33917.81 4309.62,33922.71 4310.58,33927.61 4311.57,33932.49 4312.62,33937.35 4313.72,33942.22 4314.86,33947.07 4316.06,33951.90 4317.30,33956.73 4318.59,33961.54 4319.93,33966.34 4321.32,33971.12 4322.75,33975.90 4324.24,33980.65 4325.76,33985.39 4327.35,33990.12 4328.97,33994.83 4330.64,33999.53 4332.35,34004.20 4334.11,34008.87 4335.90,34013.52 4337.74,34018.16 4339.60,34022.79 4341.50,34027.40 4343.43,34032.00 4345.38,34036.59 4347.35,34041.17 4349.36,34045.76 4351.38,34050.32 4353.42,34054.87 4355.47,34059.43 4357.55,34063.97 4359.65,34068.49 4361.75,34073.02 4363.89,34077.53 4366.05,34082.04 4368.21,34086.54 4370.40,34091.02 4372.61,34095.50 4374.83,34099.97 4377.08,34104.43 4379.35,34108.88 4381.62,34113.32 4383.93,34117.75 4386.25,34122.17 4388.58,34126.59 4390.94,34130.98 4393.32,34135.38 4395.70,34139.76 4398.12,34144.13 4400.55,34148.50 4402.99,34152.85 4405.45,34157.20 4407.93,34161.53 4410.42,34165.85 4412.93,34170.18 4415.45,34174.50 4417.98,34178.80 4420.52,34183.10 4423.06,34187.40 4425.62,34191.69 4428.19,34195.98 4430.76,34200.27 4433.34,34204.55 4435.92,34208.83 4438.51,34213.10 4441.10,34217.38 4443.70,34221.65 4446.29,34225.93"/>
        <lane id="10_1" index="1" speed="13.89" length="834.37" width="3.50" shape="4158.24,33957.38 4154.71,33954.74 4150.73,33951.74 4146.79,33948.69 4142.90,33945.60 4139.08,33942.43 4135.32,33939.19 4131.66,33935.86 4128.11,33932.42 4124.67,33928.88 4121.39,33925.21 4118.26,33921.41 4115.31,33917.47 4112.55,33913.40 4110.00,33909.20 4107.67,33904.88 4105.56,33900.45 4103.67,33895.91 4102.01,33891.29 4100.59,33886.58 4099.39,33881.82 4098.45,33877.01 4097.74,33872.14 4097.27,33867.25 4097.05,33862.35 4097.08,33857.43 4097.34,33852.53 4097.87,33847.65 4098.62,33842.79 4099.62,33837.98 4100.86,33833.23 4102.34,33828.55 4104.05,33823.94 4105.98,33819.43 4108.14,33815.02 4110.52,33810.72 4113.11,33806.54 4115.90,33802.50 4118.90,33798.61 4122.08,33794.87 4125.45,33791.29 4128.99,33787.89 4132.70,33784.67 4136.57,33781.63 4140.58,33778.79 4144.72,33776.16 4148.99,33773.74 4153.39,33771.53 4157.88,33769.56 4162.46,33767.80 4167.13,33766.28 4171.88,33764.99 4176.67,33763.94 4181.52,33763.12 4186.40,33762.56 4191.30,33762.24 4196.21,33762.16 4201.12,33762.33 4206.01,33762.74 4210.88,33763.40 4215.71,33764.30 4220.49,33765.44 4225.20,33766.83 4229.85,33768.44 4234.39,33770.28 4238.85,33772.35 4243.20,33774.64 4247.42,33777.13 4251.52,33779.85 4255.48,33782.75 4259.28,33785.87 4262.93,33789.16 4266.40,33792.63 4269.70,33796.26 4272.82,33800.07 4275.74,33804.01 4278.45,33808.10 4280.96,33812.33 4283.26,33816.67 4285.34,33821.12 4287.22,33825.67 4288.90,33830.31 4290.41,33835.01 4291.77,33839.76 4292.99,33844.57 4294.07,33849.39 4295.05,33854.26 4295.95,33859.15 4296.76,33864.07 4297.54,33868.99 4298.28,33873.93 4299.00,33878.87 4299.73,33883.82 4300.46,33888.77 4301.21,33893.71 4301.97,33898.67 4302.75,33903.61 4303.55,33908.56 4304.40,33913.50 4305.27,33918.43 4306.18,33923.37 4307.14,33928.29 4308.15,33933.21 4309.20,33938.11 4310.30,33943.00 4311.46,33947.89 4312.66,33952.76 4313.92,33957.61 4315.21,33962.46 4316.57,33967.30 4317.96,33972.12 4319.41,33976.92 4320.90,33981.71 4322.44,33986.49 4324.03,33991.24 4325.67,33995.99 4327.34,34000.71 4329.07,34005.42 4330.83,34010.11 4332.64,34014.80 4334.48,34019.46 4336.36,34024.11 4338.26,34028.74 4340.21,34033.36 4342.16,34037.97 4344.15,34042.57 4346.16,34047.16 4348.18,34051.74 4350.22,34056.31 4352.29,34060.87 4354.37,34065.43 4356.47,34069.97 4358.59,34074.50 4360.73,34079.03 4362.89,34083.56 4365.07,34088.06 4367.26,34092.56 4369.47,34097.06 4371.71,34101.53 4373.96,34106.01 4376.23,34110.48 4378.52,34114.92 4380.83,34119.37 4383.15,34123.81 4385.50,34128.23 4387.86,34132.64 4390.24,34137.04 4392.64,34141.44 4395.06,34145.83 4397.49,34150.20 4399.95,34154.57 4402.41,34158.92 4404.89,34163.27 4407.40,34167.61 4409.91,34171.94 4412.43,34176.26 4414.96,34180.58 4417.50,34184.88 4420.06,34189.18 4422.62,34193.49 4425.19,34197.78 4427.76,34202.07 4430.34,34206.35 4432.92,34210.63 4435.51,34214.92 4438.10,34219.20 4440.70,34223.47 4443.29,34227.75"/>
    </edge>
    <edge id="11" from="11-SourceNode" to="11-DestinationNode" priority="-1" type="6" spreadType="center" shape="4226.29,34603.70 4230.73,34601.40 4235.16,34599.10 4239.60,34596.79 4244.04,34594.49 4248.48,34592.18 4252.91,34589.88 4257.35,34587.58 4261.79,34585.27 4266.23,34582.97 4270.66,34580.67 4275.10,34578.36 4279.54,34576.06 4283.98,34573.76 4288.42,34571.45 4292.85,34569.15 4297.29,34566.84 4301.73,34564.54 4306.17,34562.24 4310.60,34559.93 4315.04,34557.63 4319.48,34555.33 4323.92,34553.02 4328.35,34550.72 4332.79,34548.42 4337.23,34546.11 4341.67,34543.81 4346.11,34541.50 4350.54,34539.20 4354.98,34536.90 4359.41,34534.58 4363.83,34532.24 4368.23,34529.86 4372.59,34527.42 4376.92,34524.91 4381.19,34522.32 4385.41,34519.63 4389.55,34516.83 4393.61,34513.91 4397.56,34510.85 4401.40,34507.65 4405.11,34504.29 4408.67,34500.78 4412.05,34497.10 4415.25,34493.26 4418.26,34489.26 4421.06,34485.12 4423.65,34480.85 4426.02,34476.45 4428.17,34471.93 4430.09,34467.32 4431.78,34462.61 4433.23,34457.83 4434.44,34452.98 4435.40,34448.07 4436.12,34443.12 4436.59,34438.15 4436.82,34433.15 4436.79,34428.15 4436.53,34423.16 4436.05,34418.18 4435.37,34413.23 4434.52,34408.30 4433.51,34403.41 4432.36,34398.54 4431.10,34393.70 4429.74,34388.89 4428.30,34384.10 4426.81,34379.33 4425.28,34374.57 4423.71,34369.82 4422.12,34365.08 4420.49,34360.35 4418.84,34355.63 4417.16,34350.93 4415.44,34346.23 4413.70,34341.54 4411.93,34336.87 4410.13,34332.20 4408.30,34327.55 4406.44,34322.91 4404.55,34318.28 4402.64,34313.66 4400.69,34309.05 4398.72,34304.46 4396.72,34299.88 4394.69,34295.31 4392.63,34290.75 4390.54,34286.21 4388.42,34281.68 4386.28,34277.16">