<routes>
    <vType id="xiaokeche" vClass = "taxi" accei = "0.4" decel = "4.5"
     length = "4" callFollowMode="carFollowing-W99" departSpeed = "max" maxSpeed="20" 
    actionStepLength="1"  laneChangeModel="SL2015" cc1="1.1"/>

    <vType id="dakeche" vClass = "hov" accei = "0.4" decel = "4.5"  length = "11"
      callFollowMode="carFollowing-W99" departSpeed = "max" maxSpeed="20" 
    actionStepLength="1"  laneChangeModel="SL2015" lcStrategic="1000" cc1="1.1"/>

   <vType id="xiaoxinghuoche" vClass = "truck" accei = "0.4" decel = "4.5"   length = "6"
      callFollowMode="carFollowing-W99" departSpeed = "max" maxSpeed="20" 
    actionStepLength="1"  laneChangeModel="SL2015" lcStrategic="1000" cc1="1.1"/>

    <vType id="zhongxinghuoche" vClass = "truck" accei = "0.4" decel = "4.5"
     length = "9.6" callFollowMode="carFollowing-W99" departSpeed = "max" maxSpeed="20" 
    actionStepLength="1"  laneChangeModel="SL2015" cc1="1.1"/>

    <vType id="daxinghuoche" vClass = "truck" accei = "0.4" decel = "4.5"  length = "13"
     callFollowMode="carFollowing-W99" departSpeed = "max" maxSpeed="20" 
    actionStepLength="1"  laneChangeModel="SL2015" lcStrategic="1000" cc1="1.1"/>

   <vType id="tedaxinghuoche" vClass = "trailer" accei = "0.4" decel = "4.5"   length = "16"
     callFollowMode="carFollowing-W99" departSpeed = "max" maxSpeed="20" 
    actionStepLength="1"  laneChangeModel="SL2015" lcStrategic="1000" cc1="1.1"/>


    <flow id="xiaokeche4" color="0,1,0" begin="0" end="7200" vehsPerHour="1000" departLane="random" type="xiaokeche" from="mainlane01" to="mainlane_16" >
      
    </flow>
</routes> 