<routes>
  <!-- 车辆类型设置 需要设置 id vClass length departSpeed  maxSpeed -->
    <vType id="xiaokeche" vClass = "private" accei = "0.4" decel = "8"
     length = "4" callFollowMode="carFollowing-W99" departSpeed = "desired" maxSpeed="33.33" 
    actionStepLength="1"  laneChangeModel="SL2015" lcSpeedGain="10" lcOpposite="10" cc1="1.1" cc2="4" cc3="-8" 
    cc4="0.35" cc5="0.35" cc6="11.44" cc7="0.25" cc8="3.5" cc9="1.5"/>

    <vType id="dakeche" vClass = "bus" accei = "0.4" decel = "4.5"  length = "11"
      callFollowMode="carFollowing-W99" departSpeed = "desired" maxSpeed="27.78" 
    actionStepLength="1"  laneChangeModel="SL2015"  cc1="1.1" cc2="4" cc3="-8"
     cc4="0.35" cc5="0.35" cc6="11.44" cc7="0.25" cc8="3.5" cc9="1.5"/>

   <vType id="xiaoxinghuoche" vClass = "truck" accei = "0.4" decel = "4.5"   length = "6"
      callFollowMode="carFollowing-W99" departSpeed = "desired" maxSpeed="27.78" 
    actionStepLength="1"  laneChangeModel="SL2015"  cc1="1.1" 
    cc2="4" cc3="-8" cc4="0.35" cc5="0.35" cc6="11.44" cc7="0.25" cc8="3.5" cc9="1.5"/>

    <vType id="zhongxinghuoche" vClass = "truck" accei = "0.4" decel = "4.5"
     length = "9.6" callFollowMode="carFollowing-W99" departSpeed = "desired" maxSpeed="27.78" 
    actionStepLength="1"  laneChangeModel="SL2015" cc1="1.1" cc2="4" cc3="-8" 
    cc4="0.35" cc5="0.35" cc6="11.44" cc7="0.25" cc8="3.5" cc9="1.5"/>

    <vType id="daxinghuoche" vClass = "truck" accei = "0.4" decel = "4.5"  length = "13"
     callFollowMode="carFollowing-W99" departSpeed = "desired" maxSpeed="27.78" 
    actionStepLength="1"  laneChangeModel="SL2015"  cc1="1.1"
     cc2="4" cc3="-8" cc4="0.35" cc5="0.35" cc6="11.44" cc7="0.25" cc8="3.5" cc9="1.5"/>

   <vType id="tedaxinghuoche" vClass = "trailer" accei = "0.4" decel = "4.5"   length = "16"
     callFollowMode="carFollowing-W99" departSpeed = "desired" maxSpeed="27.78" 
    actionStepLength="1"  laneChangeModel="SL2015"  cc1="1.1" cc2="4" cc3="-8" 
    cc4="0.35" cc5="0.35" cc6="11.44" cc7="0.25" cc8="3.5" cc9="1.5"/>

<!-- 车流量设置 -->
    <flow id="xiaokeche_4zhixing" color="1,1,0" begin="0" end="72000" vehsPerHour="2609" departLane="4" arrivalLane="5"
    type="xiaokeche" from="mainlane01" to="mainlane_16"  departPos="random"/>

    <flow id="xiaokeche_3zhixing" color="0,1,0" begin="0" end="72000" vehsPerHour="2609" departLane="3" arrivalLane="4"
    type="xiaokeche" from="mainlane01" to="mainlane_16"  departPos="random"/>

    <flow id="xiaokeche_2zhixing" color="0,1,0" begin="0" end="72000" vehsPerHour="200" departLane="2"  arrivalLane="3"
    type="xiaokeche" from="mainlane01" to="mainlane_16"  departPos="random"/>

    <flow id="dakeche_zhixing" color="0,1,0" begin="0" end="72000" vehsPerHour="169" departLane="first" 
    type="dakeche" from="mainlane01" to="mainlane_16"  departPos="random" />

    <flow id="xiaoxinghuoche_zhixing" color="0,1,1" begin="0" end="72000" vehsPerHour="593" departLane="first"
     type="xiaoxinghuoche" from="mainlane01" to="mainlane_16"  departPos="random" />

    <flow id="zhongxinghuoche_zhixing" color="0,0,1" begin="0" end="72000" vehsPerHour="91" departLane="first"
     type="zhongxinghuoche" from="mainlane01" to="mainlane_16"  departPos="random" />


    <flow id="daxinghuoche_zhixing" color="0,1,0" begin="0" end="72000" vehsPerHour="266" departLane="first"
     type="daxinghuoche" from="mainlane01" to="mainlane_16"  departPos="random" />

     <flow id="tedaxinghuoche_zhixing" color="0,1,0" begin="0" end="72000" vehsPerHour="198" departLane="0"
     type="tedaxinghuoche" from="mainlane01" to="mainlane_16"  departPos="random" />


     




     <flow id="xiaokeche_houjienan_chu" color="1,1,0" begin="0" end="72000" vehsPerHour="1489" departLane="best" 
     type="xiaokeche" from="mainlane01" to="HJN_ZC1"  departPos="random"/>
 
 
     <flow id="dakeche_houjienan_chu" color="0,1,0" begin="0" end="72000" vehsPerHour="49" departLane="first" 
     type="dakeche" from="mainlane01" to="HJN_ZC1"  departPos="random" />
 
     <flow id="xiaoxinghuoche_houjienan_chu" color="0,1,1" begin="0" end="72000" vehsPerHour="153" departLane="first"
      type="xiaoxinghuoche" from="mainlane01" to="HJN_ZC1"  departPos="random" />
 
     <flow id="zhongxinghuoche_houjienan_chu" color="0,0,1" begin="0" end="72000" vehsPerHour="15" departLane="first"
      type="zhongxinghuoche" from="mainlane01" to="HJN_ZC1"  departPos="random" />
 
 
     <flow id="daxinghuoche_houjienan_chu" color="0,1,0" begin="0" end="72000" vehsPerHour="106" departLane="first"
      type="daxinghuoche" from="mainlane01" to="HJN_ZC1"  departPos="random" />
 
      <flow id="tedaxinghuoche_houjienan_chu" color="0,1,0" begin="0" end="72000" vehsPerHour="89" departLane="first"
      type="tedaxinghuoche" from="mainlane01" to="HJN_ZC1"  departPos="random" />






      <flow id="xiaokeche_houjienan_ru" color="1,1,0" begin="0" end="72000" vehsPerHour="1489" departLane="best" 
      type="xiaokeche" from="HJN_ZR2" to="mainlane_16"  departPos="random"/>
  
  
      <flow id="dakeche_houjienan_ru" color="0,1,0" begin="0" end="72000" vehsPerHour="49" departLane="first" 
      type="dakeche" from="HJN_ZR2" to="mainlane_16"  departPos="random" />
  
      <flow id="xiaoxinghuoche_houjienan_ru" color="0,1,1" begin="0" end="72000" vehsPerHour="153" departLane="first"
       type="xiaoxinghuoche" from="HJN_ZR2" to="mainlane_16"  departPos="random" />
  
      <flow id="zhongxinghuoche_houjienan_ru" color="0,0,1" begin="0" end="72000" vehsPerHour="15" departLane="first"
       type="zhongxinghuoche" from="HJN_ZR2" to="mainlane_16"  departPos="random" />
  
  
      <flow id="daxinghuoche_houjienan_ru" color="0,1,0" begin="0" end="72000" vehsPerHour="106" departLane="first"
       type="daxinghuoche" from="HJN_ZR2" to="mainlane_16"  departPos="random" />
  
       <flow id="tedaxinghuoche_houjienan_ru" color="0,1,0" begin="0" end="72000" vehsPerHour="89" departLane="first"
       type="tedaxinghuoche" from="HJN_ZR2" to="mainlane_16"  departPos="random" />









       <flow id="xiaokeche_xinlian_ru" color="1,1,0" begin="0" end="72000" vehsPerHour="106" departLane="best" arrivalLane="3" 
       type="xiaokeche" from="XL_ZR2" to="mainlane_16"  departPos="random"/>
   
   
       <flow id="dakeche_xinlian_ru" color="0,1,0" begin="0" end="72000" vehsPerHour="70" departLane="first" 
       type="dakeche" from="XL_ZR2" to="mainlane_16"  departPos="random" />
   
       <flow id="xiaoxinghuoche_xinlian_ru" color="0,1,1" begin="0" end="72000" vehsPerHour="75" departLane="first"
        type="xiaoxinghuoche" from="XL_ZR2" to="mainlane_16"  departPos="random" />
   
       <flow id="zhongxinghuoche_xinlian_ru" color="0,0,1" begin="0" end="72000" vehsPerHour="15" departLane="first"
        type="zhongxinghuoche" from="XL_ZR2" to="mainlane_16"  departPos="random" />
   
   
       <flow id="daxinghuoche_xinlian_ru" color="0,1,0" begin="0" end="72000" vehsPerHour="6" departLane="first"
        type="daxinghuoche" from="XL_ZR2" to="mainlane_16"  departPos="random" />
   
        <flow id="tedaxinghuoche_xinlian_ru" color="0,1,0" begin="0" end="72000" vehsPerHour="5" departLane="first"
        type="tedaxinghuoche" from="XL_ZR2" to="mainlane_16"  departPos="random" />





        <flow id="xiaokeche_taiping_ru" color="1,1,0" begin="0" end="72000" vehsPerHour="2242" departLane="best" 
        type="xiaokeche" from="TP_ZR1" to="mainlane_16"  departPos="random"/>
    
    
        <flow id="dakeche_taiping_ru" color="0,1,0" begin="0" end="72000" vehsPerHour="74" departLane="first" 
        type="dakeche" from="TP_ZR1" to="mainlane_16"  departPos="random" />
    
        <flow id="xiaoxinghuoche_taiping_ru" color="0,1,1" begin="0" end="72000" vehsPerHour="147" departLane="first"
         type="xiaoxinghuoche" from="TP_ZR1" to="mainlane_16"  departPos="random" />
    
        <flow id="zhongxinghuoche_taiping_ru" color="0,0,1" begin="0" end="72000" vehsPerHour="28" departLane="first"
         type="zhongxinghuoche" from="TP_ZR1" to="mainlane_16"  departPos="random" />
    
    
        <flow id="daxinghuoche_taiping_ru" color="0,1,0" begin="0" end="72000" vehsPerHour="179" departLane="first"
         type="daxinghuoche" from="TP_ZR1" to="mainlane_16"  departPos="random" />
    
         <flow id="tedaxinghuoche_taiping_ru" color="0,1,0" begin="0" end="72000" vehsPerHour="89" departLane="first"
         type="tedaxinghuoche" from="TP_ZR1" to="mainlane_16"  departPos="random" />





         <flow id="xiaokeche_xinlian_chu" color="1,1,0" begin="0" end="72000" vehsPerHour="584" departLane="best" 
         type="xiaokeche" from="mainlane01" to="XL_ZC2"  departPos="random"/>
     
     
         <flow id="dakeche_xinlian_chu" color="0,1,0" begin="0" end="72000" vehsPerHour="14" departLane="first" 
         type="dakeche" from="mainlane01" to="XL_ZC2"  departPos="random" />
     
         <flow id="xiaoxinghuoche_xinlian_chu" color="0,1,1" begin="0" end="72000" vehsPerHour="80" departLane="first"
          type="xiaoxinghuoche" from="mainlane01" to="XL_ZC2"  departPos="random" />
     
         <flow id="zhongxinghuoche_xinlian_chu" color="0,0,1" begin="0" end="72000" vehsPerHour="8" departLane="first"
          type="zhongxinghuoche" from="mainlane01" to="XL_ZC2"  departPos="random" />
     
     
         <flow id="daxinghuoche_xinlian_chu" color="0,1,0" begin="0" end="72000" vehsPerHour="76" departLane="first"
          type="daxinghuoche" from="mainlane01" to="XL_ZC2"  departPos="random" />
     
          <flow id="tedaxinghuoche_xinlian_chu" color="0,1,0" begin="0" end="72000" vehsPerHour="94" departLane="first"
          type="tedaxinghuoche" from="mainlane01" to="XL_ZC2"  departPos="random" />







          <flow id="xiaokeche_taiping_chu" color="1,1,0" begin="0" end="72000" vehsPerHour="1015" departLane="best" 
          type="xiaokeche" from="mainlane01" to="TP_ZC2"  departPos="random"/>
      
      
          <flow id="dakeche_taiping_chu" color="0,1,0" begin="0" end="72000" vehsPerHour="42" departLane="first" 
          type="dakeche" from="mainlane01" to="TP_ZC2"  departPos="random" />
      
          <flow id="xiaoxinghuoche_taiping_chu" color="0,1,1" begin="0" end="72000" vehsPerHour="111" departLane="first"
           type="xiaoxinghuoche" from="mainlane01" to="TP_ZC2"  departPos="random" />
      
          <flow id="zhongxinghuoche_taiping_chu" color="0,0,1" begin="0" end="72000" vehsPerHour="15" departLane="first"
           type="zhongxinghuoche" from="mainlane01" to="TP_ZC2"  departPos="random" />
      
      
          <flow id="daxinghuoche_taiping_chu" color="0,1,0" begin="0" end="72000" vehsPerHour="106" departLane="first"
           type="daxinghuoche" from="mainlane01" to="TP_ZC2"  departPos="random" />
      
           <flow id="tedaxinghuoche_taiping_chu" color="0,1,0" begin="0" end="72000" vehsPerHour="74" departLane="first"
           type="tedaxinghuoche" from="mainlane01" to="TP_ZC2"  departPos="random" />
</routes> 