<?xml version="1.0" encoding="UTF-8"?>

<!-- generated on 2021-11-13 20:09:27 by Eclipse SUMO netedit Version 1.10.0
<configuration xmlns:xsi="http://www.w3.org/2001/XMLSchema-instance" xsi:noNamespaceSchemaLocation="http://sumo.dlr.de/xsd/netconvertConfiguration.xsd">

    <output>
        <output-file value="F:\sumo_pro\traci_main\guangshen\guangshen\test.net.xml"/>
    </output>

    <processing>
        <offset.disable-normalization value="true"/>
    </processing>

    <junctions>
        <no-turnarounds value="true"/>
    </junctions>

    <report>
        <aggregate-warnings value="5"/>
    </report>

</configuration>
-->

<net version="1.9" junctionCornerDetail="5" limitTurnSpeed="5.50" xmlns:xsi="http://www.w3.org/2001/XMLSchema-instance" xsi:noNamespaceSchemaLocation="http://sumo.dlr.de/xsd/net_file.xsd">

    <location netOffset="0.00,0.00" convBoundary="-153.28,-32.75,167.95,0.00" origBoundary="10000000000.00,10000000000.00,-10000000000.00,-10000000000.00" projParameter="!"/>

    <edge id=":gneJ0_0" function="internal">
        <lane id=":gneJ0_0_0" index="0" speed="13.89" length="97.42" shape="-82.94,-20.35 -67.17,-18.59 -40.18,-16.64 -10.34,-15.05 13.97,-14.40"/>
        <lane id=":gneJ0_0_1" index="1" speed="13.89" length="97.42" shape="-83.46,-17.19 -67.64,-15.42 -40.52,-13.46 -10.54,-11.86 13.82,-11.20"/>
        <lane id=":gneJ0_0_2" index="2" speed="13.89" length="97.42" shape="-83.46,-17.19 -67.66,-14.92 -40.59,-11.86 -10.67,-9.16 13.68,-8.00"/>
    </edge>
    <edge id=":gneJ0_3" function="internal">
        <lane id=":gneJ0_3_0" index="0" speed="13.89" length="97.48" shape="-83.74,-14.40 13.97,-14.40"/>
        <lane id=":gneJ0_3_1" index="1" speed="13.89" length="97.48" shape="-83.77,-11.20 13.82,-11.20"/>
        <lane id=":gneJ0_3_2" index="2" speed="13.89" length="97.48" shape="-83.80,-8.00 13.68,-8.00"/>
        <lane id=":gneJ0_3_3" index="3" speed="13.89" length="97.48" shape="-83.84,-4.80 13.54,-4.80"/>
        <lane id=":gneJ0_3_4" index="4" speed="13.89" length="97.48" shape="-83.87,-1.60 13.39,-1.60"/>
    </edge>

    <edge id="gneE0" from="gneJ0" to="gneJ1" priority="-1">
        <lane id="gneE0_0" index="0" speed="13.89" length="154.27" shape="13.97,-14.40 167.95,-14.40"/>
        <lane id="gneE0_1" index="1" speed="13.89" length="154.27" shape="13.82,-11.20 167.95,-11.20"/>
        <lane id="gneE0_2" index="2" speed="13.89" length="154.27" shape="13.68,-8.00 167.95,-8.00"/>
        <lane id="gneE0_3" index="3" speed="13.89" length="154.27" shape="13.54,-4.80 167.95,-4.80"/>
        <lane id="gneE0_4" index="4" speed="13.89" length="154.27" shape="13.39,-1.60 167.95,-1.60"/>
    </edge>
    <edge id="gneE2" from="gneJ4" to="gneJ0" priority="-1">
        <lane id="gneE2_0" index="0" speed="13.89" length="69.48" shape="-153.28,-14.40 -83.74,-14.40"/>
        <lane id="gneE2_1" index="1" speed="13.89" length="69.48" shape="-153.28,-11.20 -83.77,-11.20"/>
        <lane id="gneE2_2" index="2" speed="13.89" length="69.48" shape="-153.28,-8.00 -83.80,-8.00"/>
        <lane id="gneE2_3" index="3" speed="13.89" length="69.48" shape="-153.28,-4.80 -83.84,-4.80"/>
        <lane id="gneE2_4" index="4" speed="13.89" length="69.48" shape="-153.28,-1.60 -83.87,-1.60"/>
    </edge>
    <edge id="gneE3" from="gneJ5" to="gneJ0" priority="-1" spreadType="center">
        <lane id="gneE3_0" index="0" speed="13.89" length="70.88" shape="-152.37,-34.32 -82.94,-20.35"/>
        <lane id="gneE3_1" index="1" speed="13.89" length="70.88" shape="-153.01,-31.18 -83.46,-17.19"/>
    </edge>

    <junction id="gneJ0" type="priority" x="10.11" y="0.00" incLanes="gneE3_0 gneE3_1 gneE2_0 gneE2_1 gneE2_2 gneE2_3 gneE2_4" intLanes=":gneJ0_0_0 :gneJ0_0_1 :gneJ0_0_2 :gneJ0_3_0 :gneJ0_3_1 :gneJ0_3_2 :gneJ0_3_3 :gneJ0_3_4" shape="13.31,0.19 14.01,-15.32 -82.67,-21.96 -83.73,-15.55 -83.88,-0.33" customShape="1">
        <request index="0" response="11111000" foes="11111000" cont="0"/>
        <request index="1" response="11111000" foes="11111000" cont="0"/>
        <request index="2" response="11111000" foes="11111000" cont="0"/>
        <request index="3" response="00000000" foes="00000111" cont="0"/>
        <request index="4" response="00000000" foes="00000111" cont="0"/>
        <request index="5" response="00000000" foes="00000111" cont="0"/>
        <request index="6" response="00000000" foes="00000111" cont="0"/>
        <request index="7" response="00000000" foes="00000111" cont="0"/>
    </junction>
    <junction id="gneJ1" type="dead_end" x="167.95" y="0.00" incLanes="gneE0_0 gneE0_1 gneE0_2 gneE0_3 gneE0_4" intLanes="" shape="167.95,-16.00 167.95,0.00"/>
    <junction id="gneJ4" type="dead_end" x="-153.28" y="0.00" incLanes="" intLanes="" shape="-153.28,0.00 -153.28,-16.00"/>
    <junction id="gneJ5" type="dead_end" x="-152.69" y="-32.75" incLanes="" intLanes="" shape="-153.32,-29.61 -152.06,-35.89"/>

    <connection from="gneE2" to="gneE0" fromLane="0" toLane="0" via=":gneJ0_3_0" dir="s" state="M"/>
    <connection from="gneE2" to="gneE0" fromLane="1" toLane="1" via=":gneJ0_3_1" dir="s" state="M"/>
    <connection from="gneE2" to="gneE0" fromLane="2" toLane="2" via=":gneJ0_3_2" dir="s" state="M"/>
    <connection from="gneE2" to="gneE0" fromLane="3" toLane="3" via=":gneJ0_3_3" dir="s" state="M"/>
    <connection from="gneE2" to="gneE0" fromLane="4" toLane="4" via=":gneJ0_3_4" dir="s" state="M"/>
    <connection from="gneE3" to="gneE0" fromLane="0" toLane="0" via=":gneJ0_0_0" dir="s" state="m"/>
    <connection from="gneE3" to="gneE0" fromLane="1" toLane="1" via=":gneJ0_0_1" dir="s" state="m"/>
    <connection from="gneE3" to="gneE0" fromLane="1" toLane="2" via=":gneJ0_0_2" dir="s" state="m"/>

    <connection from=":gneJ0_0" to="gneE0" fromLane="0" toLane="0" dir="s" state="M"/>
    <connection from=":gneJ0_0" to="gneE0" fromLane="1" toLane="1" dir="s" state="M"/>
    <connection from=":gneJ0_0" to="gneE0" fromLane="2" toLane="2" dir="s" state="M"/>
    <connection from=":gneJ0_3" to="gneE0" fromLane="0" toLane="0" dir="s" state="M"/>
    <connection from=":gneJ0_3" to="gneE0" fromLane="1" toLane="1" dir="s" state="M"/>
    <connection from=":gneJ0_3" to="gneE0" fromLane="2" toLane="2" dir="s" state="M"/>
    <connection from=":gneJ0_3" to="gneE0" fromLane="3" toLane="3" dir="s" state="M"/>
    <connection from=":gneJ0_3" to="gneE0" fromLane="4" toLane="4" dir="s" state="M"/>

</net>
